* File: MS_DFF.pex.netlist.pex
* Created: Fri Dec 20 00:34:01 2019
* Program "Calibre xRC"
* Version "v2016.4_15.11"
* Nominal Temperature: 27C
* Circuit Temperature: 27C
* 
.subckt PM_MS_DFF%VDD 142 149 150 151 152 153 154 155 156 157 158 159 160 161
+ 162 163 168 173 178 183 188 193 198 203 208 213 214 218 219 223 224 228 229
+ 233 234 238 239 243 244 248 249 253 254
c0 430 0 0.0293077f
c1 428 0 0.0293077f
c2 328 0 0.0201611f
c3 322 0 0.0155972f
c4 316 0 0.0258607f
c5 310 0 0.0589816f
c6 304 0 0.0407087f
c7 298 0 0.0172041f
c8 292 0 0.0258607f
c9 286 0 0.0589816f
c10 280 0 0.0380344f
c11 274 0 0.0155976f
c12 268 0 0.0155972f
c13 262 0 0.0258607f
c14 257 0 0.428381f
c15 252 0 0.415229f
c16 247 0 0.415229f
c17 242 0 0.415229f
c18 237 0 0.415229f
c19 232 0 0.415229f
c20 227 0 0.415229f
c21 222 0 0.415229f
c22 217 0 0.415229f
c23 211 0 0.270486f
c24 206 0 1.3629f
c25 201 0 0.570513f
c26 196 0 0.353693f
c27 191 0 0.264844f
c28 186 0 0.348865f
c29 181 0 0.264844f
c30 176 0 0.2797f
c31 171 0 0.264844f
c32 166 0 0.264844f
c33 148 0 5.03239e-19
c34 144 0 0.0433627f
c35 140 0 0.0327663f
c36 139 0 0.511334f
c37 136 0 0.0849212f
c38 133 0 0.0610723f
c39 130 0 0.0243586f
c40 127 0 5.03239e-19
c41 124 0 0.027533f
c42 123 0 1.38917f
c43 121 0 0.019642f
c44 120 0 2.03843f
c45 118 0 0.00905248f
c46 115 0 0.0195781f
c47 112 0 0.00905248f
c48 109 0 0.00153486f
c49 106 0 0.0186074f
c50 103 0 0.0277006f
c51 102 0 0.428662f
c52 99 0 0.0201612f
c53 81 0 0.191241f
c54 71 0 0.00106519f
c55 65 0 0.00746401f
c56 61 0 0.0207423f
c57 59 0 0.0207423f
c58 57 0 0.0207423f
c59 55 0 0.0207423f
c60 53 0 0.0207423f
c61 51 0 0.0207423f
c62 49 0 0.0207423f
c63 47 0 0.0207423f
c64 45 0 0.0207423f
c65 44 0 0.0435161f
c66 43 0 0.0407595f
c67 42 0 0.765407f
c68 36 0 0.561273f
c69 31 0 0.246738f
r70 340 432 0.00682649
r71 316 430 0.0193481
r72 292 428 0.0193481
r73 256 257 5.44423
r74 254 256 1.62
r75 253 256 1.62
r76 251 252 5.44423
r77 249 251 1.62
r78 248 251 1.62
r79 246 247 5.44423
r80 244 246 1.62
r81 243 246 1.62
r82 241 242 5.44423
r83 239 241 1.62
r84 238 241 1.62
r85 237 432 0.215833
r86 236 237 5.44423
r87 234 236 1.62
r88 233 236 1.62
r89 231 232 5.44423
r90 229 231 1.62
r91 228 231 1.62
r92 226 227 5.44423
r93 224 226 1.62
r94 223 226 1.62
r95 221 222 5.44423
r96 219 221 1.62
r97 218 221 1.62
r98 216 217 5.44423
r99 214 216 1.62
r100 213 216 1.62
r101 210 211 5.44423
r102 208 210 1.62
r103 205 206 0.742396
r104 203 205 0.227103
r105 200 201 2.04159
r106 198 200 0.605985
r107 196 430 0.220277
r108 195 196 5.44423
r109 193 195 1.62
r110 190 191 5.44423
r111 188 190 1.62
r112 186 428 0.220277
r113 185 186 5.44423
r114 183 185 1.62
r115 180 181 5.44423
r116 178 180 1.62
r117 175 176 5.44423
r118 173 175 1.62
r119 170 171 5.44423
r120 168 170 1.62
r121 165 166 5.44423
r122 163 165 1.62
r123 162 340 0.816635
r124 161 334 8.16635
r125 160 328 8.16635
r126 159 322 8.16635
r127 158 316 8.16635
r128 157 310 8.16635
r129 156 304 8.16635
r130 155 298 8.16635
r131 154 292 8.16635
r132 153 286 8.16635
r133 152 280 8.16635
r134 151 274 8.16635
r135 150 268 8.16635
r136 149 262 8.16635
r137 148 322 4
r138 147 148 4
r139 142 144 8
r140 139 142 0.925213
r141 139 140 8
r142 137 147 0.0179661
r143 137 139 0.315319
r144 136 304 4
r145 135 136 4
r146 133 298 4
r147 132 135 0.542609
r148 132 133 4
r149 130 280 4
r150 129 132 1.13043
r151 129 130 4
r152 127 268 4
r153 126 129 0.929783
r154 126 127 4
r155 124 126 0.208424
r156 123 147 0.0183567
r157 123 135 1.09793
r158 121 316 4
r159 120 121 4
r160 118 310 4
r161 117 120 0.543315
r162 117 118 4
r163 115 292 4
r164 114 117 1.13043
r165 114 115 4
r166 112 286 4
r167 111 114 0.542609
r168 111 112 4
r169 109 274 4
r170 108 111 0.975
r171 108 109 4
r172 106 262 4
r173 105 108 0.542609
r174 105 106 4
r175 103 105 0.208424
r176 102 124 0.0363228
r177 101 103 0.0363228
r178 101 102 0.908617
r179 98 257 0.215833
r180 98 99 0.00682649
r181 96 252 0.215833
r182 96 97 0.00682649
r183 94 247 0.215833
r184 94 95 0.00682649
r185 92 242 0.215833
r186 92 93 0.00682649
r187 90 232 0.215833
r188 90 91 0.00682649
r189 88 227 0.215833
r190 88 89 0.00682649
r191 86 222 0.215833
r192 86 87 0.00682649
r193 84 217 0.215833
r194 84 85 0.00682649
r195 82 211 0.220426
r196 82 83 0.00725953
r197 81 334 0.289891
r198 79 334 0.0722826
r199 79 80 0.0301753
r200 78 206 0.875745
r201 78 80 0.00725953
r202 76 328 0.0722826
r203 76 77 0.0301753
r204 75 201 0.379787
r205 75 77 0.00725953
r206 74 191 0.220426
r207 73 322 0.0722826
r208 73 74 0.0391169
r209 72 181 0.220426
r210 71 298 0.0722826
r211 71 72 0.0391169
r212 70 176 0.220277
r213 69 274 0.0722826
r214 69 70 0.0391169
r215 68 171 0.220426
r216 67 268 0.0722826
r217 67 68 0.0391169
r218 66 166 0.220277
r219 65 262 0.0722826
r220 65 66 0.0391169
r221 62 97 0.0307054
r222 61 99 0.0307054
r223 61 62 0.144565
r224 60 95 0.0307054
r225 59 97 0.0307054
r226 59 60 0.144565
r227 58 93 0.0307054
r228 57 95 0.0307054
r229 57 58 0.144565
r230 56 340 0.0307054
r231 55 93 0.0307054
r232 55 56 0.144565
r233 54 91 0.0307054
r234 53 340 0.0307054
r235 53 54 0.144565
r236 52 89 0.0307054
r237 51 91 0.0307054
r238 51 52 0.144565
r239 50 87 0.0307054
r240 49 89 0.0307054
r241 49 50 0.144565
r242 48 85 0.0307054
r243 47 87 0.0307054
r244 47 48 0.144565
r245 46 83 0.0301753
r246 45 85 0.0307054
r247 45 46 0.144565
r248 43 83 0.0301753
r249 43 44 0.0806522
r250 42 81 0.039111
r251 41 44 0.039111
r252 41 42 1.33
r253 38 144 8
r254 36 80 0.0301753
r255 36 38 1.02489
r256 33 140 8
r257 31 77 0.0301753
r258 31 33 0.440543
.ends

.subckt PM_MS_DFF%VSS 149 150 235 240 245 250 255 260 265 270 275 280 285 286
+ 290 291 295 296 300 301 305 306 310 311 315 316 320 321 325 326
c0 399 0 0.00218349f
c1 329 0 0.210525f
c2 324 0 0.197374f
c3 319 0 0.197374f
c4 314 0 0.197374f
c5 309 0 0.197374f
c6 304 0 0.197374f
c7 299 0 0.197374f
c8 294 0 0.197374f
c9 289 0 0.197374f
c10 283 0 0.127233f
c11 278 0 0.512102f
c12 273 0 0.275724f
c13 268 0 0.128203f
c14 263 0 0.155991f
c15 258 0 0.128203f
c16 253 0 0.155991f
c17 248 0 0.152585f
c18 243 0 0.153675f
c19 238 0 0.147462f
c20 233 0 0.0169116f
c21 221 0 0.0201612f
c22 215 0 0.0477059f
c23 209 0 0.0155988f
c24 203 0 0.0371379f
c25 197 0 0.0439138f
c26 191 0 0.0477059f
c27 185 0 0.0188926f
c28 179 0 0.0426198f
c29 173 0 0.0403196f
c30 167 0 0.01908f
c31 161 0 0.0258623f
c32 155 0 0.0157252f
c33 149 0 0.0147701f
c34 146 0 0.0337947f
c35 145 0 0.493043f
c36 142 0 0.0402576f
c37 141 0 0.412166f
c38 137 0 0.0195925f
c39 134 0 0.0245566f
c40 131 0 0.0195925f
c41 128 0 0.0245406f
c42 124 0 0.0195375f
c43 121 0 2.18736f
c44 120 0 5.04105e-19
c45 117 0 0.00790441f
c46 114 0 0.102161f
c47 111 0 0.109558f
c48 108 0 0.119425f
c49 104 0 0.00919949f
c50 101 0 1.45164f
c51 99 0 0.0670062f
c52 97 0 0.0169116f
c53 95 0 0.0169116f
c54 93 0 0.0169116f
c55 91 0 0.0169116f
c56 89 0 0.0169116f
c57 87 0 0.0169116f
c58 85 0 0.0169116f
c59 79 0 0.021396f
c60 78 0 0.177385f
c61 71 0 0.0072801f
c62 69 0 0.0072801f
c63 67 0 0.00242511f
c64 65 0 0.0072801f
c65 59 0 0.0640041f
c66 57 0 0.0640041f
c67 55 0 0.0640041f
c68 53 0 0.0640041f
c69 51 0 0.0640041f
c70 49 0 0.0640041f
c71 47 0 0.0640041f
c72 45 0 0.0640041f
c73 44 0 0.077512f
c74 43 0 0.0591002f
c75 42 0 0.17365f
c76 38 0 0.319794f
c77 31 0 0.155357f
r78 328 329 16.3327
r79 326 328 4.86
r80 325 328 4.86
r81 323 324 16.3327
r82 321 323 4.86
r83 320 323 4.86
r84 318 319 16.3327
r85 316 318 4.86
r86 315 318 4.86
r87 313 314 16.3327
r88 311 313 4.86
r89 310 313 4.86
r90 309 421 0.140146
r91 308 309 16.3327
r92 306 308 4.86
r93 305 308 4.86
r94 303 304 16.3327
r95 301 303 4.86
r96 300 303 4.86
r97 298 299 16.3327
r98 296 298 4.86
r99 295 298 4.86
r100 293 294 16.3327
r101 291 293 4.86
r102 290 293 4.86
r103 288 289 16.3327
r104 286 288 4.86
r105 285 288 4.86
r106 282 283 16.3327
r107 280 282 4.86
r108 277 278 2.33324
r109 275 277 0.680672
r110 272 273 8.16635
r111 270 272 1.81343
r112 268 404 0.143128
r113 267 268 16.3327
r114 265 267 4.86
r115 262 263 16.3327
r116 260 262 4.86
r117 258 399 0.143128
r118 257 258 16.3327
r119 255 257 4.86
r120 252 253 16.3327
r121 250 252 4.86
r122 247 248 16.3327
r123 245 247 4.86
r124 242 243 16.3327
r125 240 242 4.86
r126 237 238 16.3327
r127 235 237 4.86
r128 233 421 0.00726886
r129 209 404 0.0193481
r130 185 399 0.0193481
r131 150 233 0.816635
r132 150 227 8.16635
r133 150 221 8.16635
r134 150 215 8.16635
r135 150 209 8.16635
r136 150 203 8.16635
r137 150 197 8.16635
r138 150 191 8.16635
r139 150 185 8.16635
r140 150 179 8.16635
r141 150 173 8.16635
r142 150 167 8.16635
r143 150 161 8.16635
r144 150 155 8.16635
r145 145 146 8
r146 143 149 0.02802
r147 143 145 1.15375
r148 141 142 8
r149 139 141 0.0842234
r150 138 149 0.00674099
r151 138 141 0.824394
r152 137 215 4
r153 136 137 4
r154 134 197 4
r155 133 136 1.13114
r156 133 134 4
r157 131 191 4
r158 130 133 0.542609
r159 130 131 4
r160 128 173 4
r161 127 130 1.13043
r162 127 128 4
r163 124 161 4
r164 123 127 0.929783
r165 123 124 4
r166 121 139 0.0363228
r167 121 136 0.208424
r168 120 209 4
r169 119 120 4
r170 117 203 4
r171 116 119 0.543315
r172 116 117 4
r173 114 185 4
r174 113 116 1.13043
r175 113 114 4
r176 111 179 4
r177 110 113 0.542609
r178 110 111 4
r179 108 167 4
r180 107 110 0.975
r181 107 108 4
r182 104 155 4
r183 103 107 0.542609
r184 103 104 4
r185 101 149 0.02802
r186 101 119 0.208424
r187 98 329 0.140146
r188 98 99 0.00726886
r189 96 324 0.140146
r190 96 97 0.00726886
r191 94 319 0.140146
r192 94 95 0.00726886
r193 92 314 0.140146
r194 92 93 0.00726886
r195 90 304 0.140146
r196 90 91 0.00726886
r197 88 299 0.140146
r198 88 89 0.00726886
r199 86 294 0.140146
r200 86 87 0.00726886
r201 84 289 0.140146
r202 84 85 0.00726886
r203 83 283 0.143128
r204 82 83 0.00411102
r205 80 82 0.104255
r206 78 227 0.334022
r207 78 79 0.00814823
r208 77 278 0.385894
r209 76 227 0.0722826
r210 76 77 0.0391169
r211 74 221 0.0722826
r212 74 75 0.0301753
r213 73 273 0.268234
r214 73 75 0.00725953
r215 72 263 0.143128
r216 71 215 0.0722826
r217 71 72 0.0391169
r218 70 253 0.143128
r219 69 191 0.0722826
r220 69 70 0.0391169
r221 68 248 0.143128
r222 67 167 0.0722826
r223 67 68 0.0391169
r224 66 243 0.143128
r225 65 161 0.0722826
r226 65 66 0.0391169
r227 64 238 0.143128
r228 63 155 0.0722826
r229 63 64 0.0391169
r230 60 97 0.030164
r231 59 99 0.030164
r232 59 60 0.141489
r233 58 95 0.030164
r234 57 97 0.030164
r235 57 58 0.141489
r236 56 93 0.030164
r237 55 95 0.030164
r238 55 56 0.141489
r239 54 233 0.030164
r240 53 93 0.030164
r241 53 54 0.141489
r242 52 91 0.030164
r243 51 233 0.030164
r244 51 52 0.141489
r245 50 89 0.030164
r246 49 91 0.030164
r247 49 50 0.141489
r248 48 87 0.030164
r249 47 89 0.030164
r250 47 48 0.141489
r251 46 85 0.030164
r252 45 87 0.030164
r253 45 46 0.141489
r254 44 82 0.035
r255 43 85 0.030164
r256 43 44 0.141489
r257 42 80 0.00411102
r258 41 79 0.0291143
r259 41 42 0.312766
r260 38 146 8
r261 36 79 0.0291143
r262 36 38 0.555383
r263 33 142 8
r264 31 75 0.0301753
r265 31 33 0.180326
.ends

.subckt PM_MS_DFF%CK 15 20 27 40 43 56 62
c0 71 0 1.37031f
c1 67 0 0.260858f
c2 64 0 1.37543f
c3 54 0 0.110733f
c4 52 0 0.0388071f
c5 49 0 0.504201f
c6 47 0 0.0381138f
c7 46 0 0.216914f
c8 44 0 0.0391889f
c9 41 0 0.0677533f
c10 38 0 0.0678447f
c11 36 0 0.0321424f
c12 33 0 0.478674f
c13 31 0 0.0284049f
c14 30 0 0.216491f
c15 28 0 0.0391832f
c16 25 0 0.110672f
c17 23 0 0.439615f
c18 7 0 0.0725925f
c19 6 0 0.280488f
c20 3 0 0.0322977f
c21 2 0 0.952088f
r22 71 75 0.399681
r23 58 62 0.140372
r24 58 59 8
r25 54 56 42.5
r26 52 71 8
r27 51 52 13.2552
r28 49 54 6.45644
r29 49 51 51.9894
r30 47 75 8
r31 46 47 13.2552
r32 44 46 24.2234
r33 41 44 6.45644
r34 41 43 17.5
r35 38 40 17.5
r36 36 67 8
r37 35 36 13.2552
r38 33 38 6.45644
r39 33 35 51.7979
r40 31 64 8
r41 30 31 13.2552
r42 28 30 24.2234
r43 25 28 6.45644
r44 25 27 42.5
r45 23 59 0.146702
r46 22 23 16.3327
r47 20 22 4.77
r48 18 59 0.218191
r49 17 18 5.44423
r50 15 17 1.59
r51 9 75 0.758426
r52 8 64 0.186011
r53 6 62 0.344362
r54 6 7 0.00715299
r55 5 64 1.29516
r56 5 7 0.0275239
r57 4 67 0.184489
r58 4 7 0.0275239
r59 3 8 0.0363174
r60 2 9 0.0363174
r61 2 3 1.57245
.ends

.subckt PM_MS_DFF%CKB 5 21 26 38 42 46 59 62 75
c0 89 0 1.70789f
c1 82 0 1.35173f
c2 78 0 0.232707f
c3 76 0 0.0352895f
c4 73 0 0.0677515f
c5 71 0 0.0289494f
c6 68 0 0.356792f
c7 66 0 0.0308657f
c8 65 0 0.334927f
c9 63 0 0.0391832f
c10 60 0 0.110977f
c11 57 0 0.110654f
c12 55 0 0.0734164f
c13 52 0 0.378235f
c14 50 0 0.0690264f
c15 49 0 0.338706f
c16 47 0 0.0391832f
c17 44 0 0.0680571f
c18 42 0 0.156817f
c19 38 0 0.1142f
c20 34 0 0.328547f
c21 31 0 0.0709992f
c22 29 0 0.132718f
c23 24 0 0.258435f
c24 20 0 0.077316f
c25 10 0 0.018146f
c26 6 0 1.05862f
c27 3 0 0.0328589f
c28 2 0 0.598928f
r29 89 92 1.54465
r30 82 85 0.399681
r31 78 79 8
r32 73 75 17.5
r33 71 89 8
r34 70 71 13.2552
r35 68 73 6.45644
r36 68 70 37.8191
r37 66 92 8
r38 65 66 13.2552
r39 63 65 38.3936
r40 60 63 6.45644
r41 60 62 42.5
r42 57 59 42.5
r43 55 82 8
r44 54 55 13.2552
r45 52 57 6.45644
r46 52 54 37.7234
r47 50 85 8
r48 49 50 13.2552
r49 47 49 38.3936
r50 44 47 6.45644
r51 44 46 17.5
r52 40 76 7.73958
r53 40 42 62.5
r54 36 76 7.73958
r55 36 38 37.5
r56 34 79 0.233085
r57 33 34 13.2552
r58 31 76 1.29764
r59 31 33 5.07447
r60 28 29 16.3327
r61 26 28 4.77
r62 23 24 5.44423
r63 21 23 1.59
r64 19 79 0.198085
r65 19 20 0.00770322
r66 18 24 0.18334
r67 18 20 0.0296412
r68 17 29 0.111553
r69 17 20 0.0296412
r70 11 89 0.157798
r71 9 82 0.728277
r72 9 10 0.00745706
r73 8 78 0.372851
r74 7 10 0.0271631
r75 6 11 0.0363174
r76 6 7 1.57245
r77 3 8 0.036329
r78 3 5 0.334381
r79 2 10 0.0271631
r80 2 5 0.507938
.ends

.subckt PM_MS_DFF%NET0206 13 18 30 34 38 42 51 55 59 63 72 76 80 84 93 97 101
+ 105 114 118 122 126 135 139 143 147 156 160 164 168 177 181 185 189 198 202
+ 206 210 219 223
c0 276 0 0.935018f
c1 243 0 0.0352895f
c2 242 0 0.0234944f
c3 241 0 0.0234944f
c4 240 0 0.0234944f
c5 239 0 0.0234944f
c6 238 0 0.0234944f
c7 237 0 0.0234944f
c8 236 0 0.0234944f
c9 235 0 0.0234944f
c10 234 0 0.0234944f
c11 233 0 0.0234944f
c12 232 0 0.0234944f
c13 231 0 0.0234944f
c14 230 0 0.0234944f
c15 229 0 0.0234944f
c16 228 0 0.0234944f
c17 227 0 0.0234944f
c18 226 0 0.0234944f
c19 225 0 0.0234944f
c20 223 0 0.142907f
c21 219 0 0.161498f
c22 216 0 0.155874f
c23 212 0 0.0634727f
c24 210 0 0.128398f
c25 206 0 0.138016f
c26 202 0 0.128398f
c27 198 0 0.138016f
c28 195 0 0.155874f
c29 191 0 0.0631725f
c30 189 0 0.128398f
c31 185 0 0.138016f
c32 181 0 0.128398f
c33 177 0 0.138016f
c34 174 0 0.155874f
c35 170 0 0.0631725f
c36 168 0 0.128398f
c37 164 0 0.138016f
c38 160 0 0.128398f
c39 156 0 0.138016f
c40 153 0 0.155874f
c41 149 0 0.0631725f
c42 147 0 0.128398f
c43 143 0 0.138016f
c44 139 0 0.128398f
c45 135 0 0.138016f
c46 132 0 0.155874f
c47 128 0 0.0631725f
c48 126 0 0.128398f
c49 122 0 0.138016f
c50 118 0 0.128398f
c51 114 0 0.138016f
c52 111 0 0.155874f
c53 107 0 0.0631725f
c54 105 0 0.128398f
c55 101 0 0.138016f
c56 97 0 0.128398f
c57 93 0 0.138016f
c58 90 0 0.155874f
c59 86 0 0.0631725f
c60 84 0 0.128398f
c61 80 0 0.138016f
c62 76 0 0.128398f
c63 72 0 0.138016f
c64 69 0 0.155874f
c65 65 0 0.0631725f
c66 63 0 0.128398f
c67 59 0 0.138016f
c68 55 0 0.128398f
c69 51 0 0.138016f
c70 48 0 0.155874f
c71 44 0 0.0631725f
c72 42 0 0.128398f
c73 38 0 0.137166f
c74 34 0 0.142308f
c75 30 0 0.149433f
c76 26 0 0.0913804f
c77 23 0 0.0705181f
c78 21 0 2.07145f
r79 273 276 0.197766
r80 270 273 0.197766
r81 267 270 0.197766
r82 264 267 0.197766
r83 261 264 0.197766
r84 258 261 0.197766
r85 255 258 0.197766
r86 252 255 0.197766
r87 249 252 0.197766
r88 245 249 0.432181
r89 245 246 8
r90 221 243 7.73958
r91 221 223 62.5
r92 217 243 7.73958
r93 217 219 62.5
r94 216 276 8
r95 215 216 13.2552
r96 213 242 1.29764
r97 213 215 5.17021
r98 212 243 1.29764
r99 212 215 5.17021
r100 208 242 7.73958
r101 208 210 62.5
r102 204 242 7.73958
r103 204 206 62.5
r104 200 241 7.73958
r105 200 202 62.5
r106 196 241 7.73958
r107 196 198 62.5
r108 195 273 8
r109 194 195 13.2552
r110 192 240 1.29764
r111 192 194 5.17021
r112 191 241 1.29764
r113 191 194 5.17021
r114 187 240 7.73958
r115 187 189 62.5
r116 183 240 7.73958
r117 183 185 62.5
r118 179 239 7.73958
r119 179 181 62.5
r120 175 239 7.73958
r121 175 177 62.5
r122 174 270 8
r123 173 174 13.2552
r124 171 238 1.29764
r125 171 173 5.17021
r126 170 239 1.29764
r127 170 173 5.17021
r128 166 238 7.73958
r129 166 168 62.5
r130 162 238 7.73958
r131 162 164 62.5
r132 158 237 7.73958
r133 158 160 62.5
r134 154 237 7.73958
r135 154 156 62.5
r136 153 267 8
r137 152 153 13.2552
r138 150 236 1.29764
r139 150 152 5.17021
r140 149 237 1.29764
r141 149 152 5.17021
r142 145 236 7.73958
r143 145 147 62.5
r144 141 236 7.73958
r145 141 143 62.5
r146 137 235 7.73958
r147 137 139 62.5
r148 133 235 7.73958
r149 133 135 62.5
r150 132 264 8
r151 131 132 13.2552
r152 129 234 1.29764
r153 129 131 5.17021
r154 128 235 1.29764
r155 128 131 5.17021
r156 124 234 7.73958
r157 124 126 62.5
r158 120 234 7.73958
r159 120 122 62.5
r160 116 233 7.73958
r161 116 118 62.5
r162 112 233 7.73958
r163 112 114 62.5
r164 111 261 8
r165 110 111 13.2552
r166 108 232 1.29764
r167 108 110 5.17021
r168 107 233 1.29764
r169 107 110 5.17021
r170 103 232 7.73958
r171 103 105 62.5
r172 99 232 7.73958
r173 99 101 62.5
r174 95 231 7.73958
r175 95 97 62.5
r176 91 231 7.73958
r177 91 93 62.5
r178 90 258 8
r179 89 90 13.2552
r180 87 230 1.29764
r181 87 89 5.17021
r182 86 231 1.29764
r183 86 89 5.17021
r184 82 230 7.73958
r185 82 84 62.5
r186 78 230 7.73958
r187 78 80 62.5
r188 74 229 7.73958
r189 74 76 62.5
r190 70 229 7.73958
r191 70 72 62.5
r192 69 255 8
r193 68 69 13.2552
r194 66 228 1.29764
r195 66 68 5.17021
r196 65 229 1.29764
r197 65 68 5.17021
r198 61 228 7.73958
r199 61 63 62.5
r200 57 228 7.73958
r201 57 59 62.5
r202 53 227 7.73958
r203 53 55 62.5
r204 49 227 7.73958
r205 49 51 62.5
r206 48 252 8
r207 47 48 13.2552
r208 45 226 1.29764
r209 45 47 5.17021
r210 44 227 1.29764
r211 44 47 5.17021
r212 40 226 7.73958
r213 40 42 62.5
r214 36 226 7.73958
r215 36 38 62.5
r216 32 225 7.73958
r217 32 34 62.5
r218 28 225 7.73958
r219 28 30 62.5
r220 26 249 8
r221 25 26 13.2552
r222 23 225 1.29764
r223 23 25 5.17021
r224 21 246 0.36117
r225 20 21 2.33324
r226 18 20 0.668067
r227 16 246 0.932936
r228 15 16 0.742396
r229 13 15 0.222897
.ends

.subckt PM_MS_DFF%CKIN 9 13 17
c0 15 0 0.0352895f
c1 13 0 0.156817f
c2 9 0 0.114478f
c3 5 0 0.297992f
c4 2 0 0.0709992f
r5 11 15 7.73958
r6 11 13 62.5
r7 7 15 7.73958
r8 7 9 37.5
r9 5 17 0.325426
r10 4 5 13.2552
r11 2 15 1.29764
r12 2 4 5.07447
.ends

.subckt PM_MS_DFF%D 9 13 17
c0 15 0 0.0352895f
c1 13 0 0.158896f
c2 9 0 0.116279f
c3 5 0 0.318222f
c4 2 0 0.0709992f
r5 11 15 7.73958
r6 11 13 62.5
r7 7 15 7.73958
r8 7 9 37.5
r9 5 17 0.323936
r10 4 5 13.2552
r11 2 15 1.29764
r12 2 4 5.07447
.ends

.subckt PM_MS_DFF%NET81 10 15 20 25
c0 28 0 0.16367f
c1 23 0 0.130071f
c2 18 0 0.279512f
c3 13 0 0.247947f
c4 9 0 0.0712156f
c5 6 0 0.0783479f
c6 2 0 0.449831f
r7 27 28 16.3327
r8 25 27 4.86
r9 22 23 16.3327
r10 20 22 4.77
r11 17 18 5.44423
r12 15 17 1.62
r13 12 13 5.44423
r14 10 12 1.59
r15 8 18 0.183191
r16 8 9 0.0296412
r17 7 28 0.111553
r18 7 9 0.0296412
r19 5 13 0.183191
r20 5 6 0.0296412
r21 4 23 0.111553
r22 4 6 0.0296412
r23 3 6 0.00770322
r24 2 9 0.00770322
r25 2 3 0.804255
.ends

.subckt PM_MS_DFF%NET0178 16 21 26 31 43 47
c0 49 0 0.0352895f
c1 47 0 0.156817f
c2 43 0 0.114319f
c3 39 0 0.482888f
c4 36 0 0.0709992f
c5 34 0 0.168944f
c6 29 0 0.165136f
c7 24 0 0.273256f
c8 19 0 0.288662f
c9 15 0 0.0657696f
c10 12 0 0.0220287f
c11 10 0 0.0711394f
c12 7 0 0.0419328f
c13 6 0 0.0442443f
c14 5 0 0.666196f
c15 2 0 0.210547f
r16 45 49 7.73958
r17 45 47 62.5
r18 41 49 7.73958
r19 41 43 37.5
r20 38 39 13.2552
r21 36 49 1.29764
r22 36 38 5.07447
r23 33 34 16.3327
r24 31 33 4.86
r25 28 29 16.3327
r26 26 28 4.77
r27 23 24 5.44423
r28 21 23 1.59
r29 18 19 5.44423
r30 16 18 1.59
r31 14 24 0.18334
r32 14 15 0.0296412
r33 13 34 0.111553
r34 13 15 0.0296412
r35 11 39 0.685851
r36 11 12 0.0296412
r37 9 19 0.183191
r38 9 10 0.0296412
r39 8 29 0.111553
r40 8 10 0.0296412
r41 6 15 0.00770322
r42 6 7 0.0789362
r43 5 12 0.00770322
r44 4 7 0.039111
r45 4 5 0.977021
r46 3 10 0.00770322
r47 2 12 0.0296412
r48 2 3 0.294894
.ends

.subckt PM_MS_DFF%NET21 10 15 20 25
c0 28 0 0.123671f
c1 23 0 0.159293f
c2 18 0 0.24536f
c3 13 0 0.274915f
c4 9 0 0.0369467f
c5 6 0 0.0711451f
c6 2 0 0.221503f
r7 27 28 16.3327
r8 25 27 4.77
r9 22 23 16.3327
r10 20 22 4.77
r11 17 18 5.44423
r12 15 17 1.59
r13 12 13 5.44423
r14 10 12 1.62
r15 8 18 0.18334
r16 8 9 0.0296412
r17 7 28 0.111553
r18 7 9 0.0296412
r19 5 13 0.18334
r20 5 6 0.0296412
r21 4 23 0.111553
r22 4 6 0.0296412
r23 3 6 0.00770322
r24 2 9 0.00770322
r25 2 3 0.39617
.ends

.subckt PM_MS_DFF%NET2 14 19 24 29 36 40
c0 47 0 0.0352895f
c1 45 0 0.713221f
c2 44 0 0.206933f
c3 40 0 0.156817f
c4 36 0 0.1142f
c5 32 0 0.157011f
c6 27 0 0.116357f
c7 22 0 0.275284f
c8 17 0 0.239351f
c9 13 0 0.0712156f
c10 10 0 0.0220287f
c11 8 0 0.077316f
c12 4 0 0.138166f
c13 2 0 0.0439997f
r14 44 45 13.2552
r15 42 47 1.29764
r16 42 44 24.2234
r17 38 47 7.73958
r18 38 40 62.5
r19 34 47 7.73958
r20 34 36 37.5
r21 31 32 16.3327
r22 29 31 4.86
r23 26 27 16.3327
r24 24 26 4.77
r25 21 22 5.44423
r26 19 21 1.62
r27 16 17 5.44423
r28 14 16 1.59
r29 12 22 0.183191
r30 12 13 0.0296412
r31 11 32 0.111553
r32 11 13 0.0296412
r33 9 45 1.01187
r34 9 10 0.00770322
r35 7 17 0.183191
r36 7 8 0.0296412
r37 6 27 0.111553
r38 6 8 0.0296412
r39 5 10 0.0296412
r40 4 13 0.00770322
r41 4 5 0.247234
r42 3 8 0.00770322
r43 2 10 0.0296412
r44 2 3 0.0789362
.ends

.subckt PM_MS_DFF%NET14 16 21 26 31 43 47
c0 49 0 0.0352895f
c1 47 0 0.156817f
c2 43 0 0.114319f
c3 39 0 0.483304f
c4 36 0 0.0709992f
c5 34 0 0.168944f
c6 29 0 0.165136f
c7 24 0 0.273243f
c8 19 0 0.288662f
c9 15 0 0.0657696f
c10 12 0 0.0220287f
c11 10 0 0.0711394f
c12 7 0 0.041932f
c13 6 0 0.0442433f
c14 5 0 0.612916f
c15 2 0 0.233422f
r16 45 49 7.73958
r17 45 47 62.5
r18 41 49 7.73958
r19 41 43 37.5
r20 38 39 13.2552
r21 36 49 1.29764
r22 36 38 5.07447
r23 33 34 16.3327
r24 31 33 4.86
r25 28 29 16.3327
r26 26 28 4.77
r27 23 24 5.44423
r28 21 23 1.62
r29 18 19 5.44423
r30 16 18 1.59
r31 14 24 0.18334
r32 14 15 0.0296412
r33 13 34 0.111553
r34 13 15 0.0296412
r35 11 39 0.686596
r36 11 12 0.0296412
r37 9 19 0.183191
r38 9 10 0.0296412
r39 8 29 0.111553
r40 8 10 0.0296412
r41 6 15 0.00770322
r42 6 7 0.0789362
r43 5 12 0.00770322
r44 4 7 0.039111
r45 4 5 0.977021
r46 3 10 0.00770322
r47 2 12 0.0296412
r48 2 3 0.294894
.ends

.subckt PM_MS_DFF%NET13 10 15 20 25
c0 28 0 0.124585f
c1 23 0 0.159302f
c2 18 0 0.247189f
c3 13 0 0.274994f
c4 9 0 0.0373767f
c5 6 0 0.0711451f
c6 2 0 0.221915f
r7 27 28 16.3327
r8 25 27 4.77
r9 22 23 16.3327
r10 20 22 4.77
r11 17 18 5.44423
r12 15 17 1.59
r13 12 13 5.44423
r14 10 12 1.59
r15 8 18 0.18334
r16 8 9 0.0296412
r17 7 28 0.111553
r18 7 9 0.0296412
r19 5 13 0.18334
r20 5 6 0.0296412
r21 4 23 0.111553
r22 4 6 0.0296412
r23 3 6 0.00770322
r24 2 9 0.00770322
r25 2 3 0.396915
.ends

.subckt PM_MS_DFF%NET61 10 15 22 26 40 44
c0 47 0 0.0352895f
c1 46 0 0.0352895f
c2 44 0 0.263786f
c3 40 0 0.149998f
c4 36 0 0.261049f
c5 33 0 0.0709976f
c6 31 0 0.790474f
c7 30 0 0.206137f
c8 26 0 0.156817f
c9 22 0 0.115393f
c10 18 0 0.116357f
c11 13 0 0.258435f
c12 9 0 0.0218611f
c13 6 0 0.077316f
c14 2 0 0.0438114f
r15 42 47 7.73958
r16 42 44 125.25
r17 38 47 7.73958
r18 38 40 58.5
r19 35 36 13.2552
r20 33 47 1.29764
r21 33 35 5.07447
r22 30 31 13.2552
r23 28 46 1.29764
r24 28 30 24.2234
r25 24 46 7.73958
r26 24 26 62.5
r27 20 46 7.73958
r28 20 22 37.5
r29 17 18 16.3327
r30 15 17 4.77
r31 12 13 5.44423
r32 10 12 1.59
r33 8 36 0.282234
r34 8 9 0.0296412
r35 7 31 1.01187
r36 7 9 0.00770322
r37 5 13 0.183191
r38 5 6 0.0296412
r39 4 18 0.111553
r40 4 6 0.0296412
r41 3 6 0.00770322
r42 2 9 0.0296412
r43 2 3 0.0789362
.ends

.subckt PM_MS_DFF%NET0210 6 11 23 27
c0 29 0 0.0352895f
c1 27 0 0.548898f
c2 23 0 0.245035f
c3 19 0 0.338877f
c4 16 0 0.0709975f
c5 14 0 0.24034f
c6 9 0 0.573485f
c7 5 0 0.077316f
r8 25 29 7.73958
r9 25 27 292.5
r10 21 29 7.73958
r11 21 23 114.25
r12 18 19 13.2552
r13 16 29 1.29764
r14 16 18 5.07447
r15 13 14 8.16635
r16 11 13 1.77985
r17 8 9 2.04159
r18 6 8 0.594763
r19 4 19 0.43117
r20 4 5 0.00770322
r21 3 9 0.39766
r22 3 5 0.0296412
r23 2 14 0.111553
r24 2 5 0.0296412
.ends

.subckt PM_MS_DFF%Q 22 53 54 58 59 63 64 68 69 73 74 78 79 83 84 88 89 93 94 98
+ 103 104 108 109 113 114 118 119 123 124 128 129 133 134 138 139 143 144 148
c0 151 0 0.101306f
c1 147 0 0.155414f
c2 142 0 0.155414f
c3 137 0 0.155414f
c4 132 0 0.155414f
c5 127 0 0.155414f
c6 122 0 0.155414f
c7 117 0 0.155414f
c8 112 0 0.155414f
c9 107 0 0.16063f
c10 101 0 0.336392f
c11 97 0 0.565031f
c12 92 0 0.565031f
c13 87 0 0.565031f
c14 82 0 0.565031f
c15 77 0 0.565031f
c16 72 0 0.565031f
c17 67 0 0.565031f
c18 62 0 0.565031f
c19 57 0 0.579034f
c20 52 0 0.00530181f
c21 49 0 0.00530181f
c22 46 0 0.00530181f
c23 43 0 0.00530181f
c24 40 0 0.00530181f
c25 37 0 0.00530181f
c26 34 0 0.00530181f
c27 31 0 0.00530181f
c28 28 0 0.00530181f
c29 25 0 0.0280377f
c30 20 0 0.19877f
c31 18 0 0.180646f
c32 16 0 0.17907f
c33 14 0 0.17907f
c34 12 0 0.17907f
c35 10 0 0.17907f
c36 8 0 0.17907f
c37 6 0 0.17907f
c38 4 0 0.17907f
c39 2 0 0.178219f
r40 150 151 16.3327
r41 148 150 4.77
r42 146 147 16.3327
r43 144 146 4.77
r44 143 146 4.77
r45 141 142 16.3327
r46 139 141 4.77
r47 138 141 4.77
r48 136 137 16.3327
r49 134 136 4.77
r50 133 136 4.77
r51 131 132 16.3327
r52 129 131 4.77
r53 128 131 4.77
r54 126 127 16.3327
r55 124 126 4.77
r56 123 126 4.77
r57 121 122 16.3327
r58 119 121 4.77
r59 118 121 4.77
r60 116 117 16.3327
r61 114 116 4.77
r62 113 116 4.77
r63 111 112 16.3327
r64 109 111 4.77
r65 108 111 4.77
r66 106 107 16.3327
r67 104 106 4.77
r68 103 106 4.77
r69 100 101 5.44423
r70 98 100 1.59
r71 96 97 5.44423
r72 94 96 1.59
r73 93 96 1.59
r74 91 92 5.44423
r75 89 91 1.59
r76 88 91 1.59
r77 86 87 5.44423
r78 84 86 1.59
r79 83 86 1.59
r80 81 82 5.44423
r81 79 81 1.59
r82 78 81 1.59
r83 76 77 5.44423
r84 74 76 1.59
r85 73 76 1.59
r86 71 72 5.44423
r87 69 71 1.59
r88 68 71 1.59
r89 66 67 5.44423
r90 64 66 1.59
r91 63 66 1.59
r92 61 62 5.44423
r93 59 61 1.59
r94 58 61 1.59
r95 56 57 5.44423
r96 54 56 1.59
r97 53 56 1.59
r98 51 101 0.290426
r99 51 52 0.035
r100 50 151 0.0787872
r101 50 52 0.035
r102 48 97 0.290426
r103 48 49 0.035
r104 47 147 0.0787872
r105 47 49 0.035
r106 45 92 0.290426
r107 45 46 0.035
r108 44 142 0.0787872
r109 44 46 0.035
r110 42 87 0.290426
r111 42 43 0.035
r112 41 137 0.0787872
r113 41 43 0.035
r114 39 82 0.290426
r115 39 40 0.035
r116 38 132 0.0787872
r117 38 40 0.035
r118 36 77 0.290426
r119 36 37 0.035
r120 35 127 0.0787872
r121 35 37 0.035
r122 33 72 0.290426
r123 33 34 0.035
r124 32 122 0.0787872
r125 32 34 0.035
r126 30 67 0.290426
r127 30 31 0.035
r128 29 117 0.0787872
r129 29 31 0.035
r130 27 62 0.290426
r131 27 28 0.035
r132 26 112 0.0787872
r133 26 28 0.035
r134 24 57 0.290426
r135 24 25 0.0296412
r136 23 107 0.0787872
r137 23 25 0.0296412
r138 20 52 0.035
r139 20 22 0.126596
r140 19 49 0.035
r141 18 52 0.035
r142 18 19 0.142979
r143 17 46 0.035
r144 16 49 0.035
r145 16 17 0.142979
r146 15 43 0.035
r147 14 46 0.035
r148 14 15 0.142979
r149 13 40 0.035
r150 12 43 0.035
r151 12 13 0.142979
r152 11 37 0.035
r153 10 40 0.035
r154 10 11 0.142979
r155 9 34 0.035
r156 8 37 0.035
r157 8 9 0.142979
r158 7 31 0.035
r159 6 34 0.035
r160 6 7 0.142979
r161 5 28 0.035
r162 4 31 0.035
r163 4 5 0.142979
r164 3 25 0.00770322
r165 2 28 0.035
r166 2 3 0.142979
.ends

