* File: inv_chain_3.pex.netlist.pex
* Created: Fri Nov 29 06:02:57 2019
* Program "Calibre xRC"
* Version "v2016.4_15.11"
* Nominal Temperature: 27C
* Circuit Temperature: 27C
* 
.subckt PM_INV_CHAIN_3%VIN 10 14 19
c0 22 0 0.489032f
c1 17 0 0.0767397f
c2 14 0 0.11718f
c3 10 0 0.224026f
c4 7 0 0.170234f
c5 6 0 0.117472f
c6 3 0 0.0755749f
r7 22 23 4
r8 19 22 0.234545
r9 14 17 38.75
r10 10 16 90.5
r11 7 23 0.0387234
r12 6 7 4.4184
r13 4 17 10.273
r14 4 6 4.56338
r15 3 16 10.273
r16 3 6 4.56338
.ends

.subckt PM_INV_CHAIN_3%NODE1 26 33 38 45 54 58 62 66 75 79 83 87 96 100 104 108
+ 117 121 125 129 138 142 146 150 159 163 167 171 180 184 188 192 201 205 209
+ 213 222 226 230 234 243 247 251 255 264 268 272 276 285 289 293 297 306 310
+ 314 318 327 331 335 339 348 352 356 360 369 373 377 381 390 394 398 402 411
+ 415 419 423 432
c0 529 0 2.33693f
c1 471 0 0.0696668f
c2 432 0 0.101598f
c3 429 0 0.204081f
c4 428 0 0.10317f
c5 425 0 0.0723405f
c6 423 0 0.211636f
c7 419 0 0.0875884f
c8 415 0 0.187111f
c9 411 0 0.0875884f
c10 409 0 0.0843954f
c11 408 0 0.335389f
c12 407 0 0.0796617f
c13 404 0 0.0870663f
c14 402 0 0.187111f
c15 398 0 0.0875884f
c16 394 0 0.187111f
c17 390 0 0.0875884f
c18 388 0 0.0843954f
c19 387 0 0.335389f
c20 386 0 0.0796617f
c21 383 0 0.0870663f
c22 381 0 0.187111f
c23 377 0 0.0875884f
c24 373 0 0.187111f
c25 369 0 0.0875884f
c26 367 0 0.0843954f
c27 366 0 0.335389f
c28 365 0 0.0796617f
c29 362 0 0.0870663f
c30 360 0 0.187111f
c31 356 0 0.0875884f
c32 352 0 0.187111f
c33 348 0 0.0875884f
c34 346 0 0.0843954f
c35 345 0 0.335389f
c36 344 0 0.0796617f
c37 341 0 0.0870663f
c38 339 0 0.187111f
c39 335 0 0.0875884f
c40 331 0 0.187111f
c41 327 0 0.0875884f
c42 325 0 0.0843954f
c43 324 0 0.335389f
c44 323 0 0.0796617f
c45 320 0 0.0870663f
c46 318 0 0.187111f
c47 314 0 0.0875884f
c48 310 0 0.187111f
c49 306 0 0.0875884f
c50 304 0 0.0843954f
c51 303 0 0.335389f
c52 302 0 0.0796617f
c53 299 0 0.0870663f
c54 297 0 0.187111f
c55 293 0 0.0875884f
c56 289 0 0.187111f
c57 285 0 0.0875884f
c58 283 0 0.0843954f
c59 282 0 0.335389f
c60 281 0 0.0796617f
c61 278 0 0.0870663f
c62 276 0 0.187111f
c63 272 0 0.0875884f
c64 268 0 0.187111f
c65 264 0 0.0875884f
c66 262 0 0.0843954f
c67 261 0 0.335389f
c68 260 0 0.0796617f
c69 257 0 0.0870663f
c70 255 0 0.187111f
c71 251 0 0.0875884f
c72 247 0 0.187111f
c73 243 0 0.0875884f
c74 241 0 0.0843954f
c75 240 0 0.335389f
c76 239 0 0.0796617f
c77 236 0 0.0870663f
c78 234 0 0.187111f
c79 230 0 0.0875884f
c80 226 0 0.187111f
c81 222 0 0.0875884f
c82 220 0 0.0843954f
c83 219 0 0.335389f
c84 218 0 0.0796617f
c85 215 0 0.0870663f
c86 213 0 0.187111f
c87 209 0 0.0875884f
c88 205 0 0.187111f
c89 201 0 0.0875884f
c90 199 0 0.0843954f
c91 198 0 0.335389f
c92 197 0 0.0796617f
c93 194 0 0.0870663f
c94 192 0 0.187111f
c95 188 0 0.0875884f
c96 184 0 0.187111f
c97 180 0 0.0875884f
c98 178 0 0.0843954f
c99 177 0 0.335389f
c100 176 0 0.0796617f
c101 173 0 0.0870663f
c102 171 0 0.187111f
c103 167 0 0.0875884f
c104 163 0 0.187111f
c105 159 0 0.0875884f
c106 157 0 0.0843954f
c107 156 0 0.335389f
c108 155 0 0.0796617f
c109 152 0 0.0870663f
c110 150 0 0.187111f
c111 146 0 0.0875884f
c112 142 0 0.187111f
c113 138 0 0.0875884f
c114 136 0 0.0843954f
c115 135 0 0.335389f
c116 134 0 0.0796617f
c117 131 0 0.0870663f
c118 129 0 0.187111f
c119 125 0 0.0875884f
c120 121 0 0.187111f
c121 117 0 0.0875884f
c122 115 0 0.0843954f
c123 114 0 0.335389f
c124 113 0 0.0796617f
c125 110 0 0.0870663f
c126 108 0 0.187111f
c127 104 0 0.0875884f
c128 100 0 0.187111f
c129 96 0 0.0875884f
c130 94 0 0.0843954f
c131 93 0 0.335389f
c132 92 0 0.0796617f
c133 89 0 0.0870663f
c134 87 0 0.187111f
c135 83 0 0.0875884f
c136 79 0 0.187111f
c137 75 0 0.0875884f
c138 73 0 0.0843954f
c139 72 0 0.335389f
c140 71 0 0.0796617f
c141 68 0 0.0870663f
c142 66 0 0.187111f
c143 62 0 0.0875884f
c144 58 0 0.187111f
c145 54 0 0.102628f
c146 52 0 0.0932596f
c147 51 0 0.335389f
c148 50 0 0.0903784f
c149 47 0 0.0959305f
c150 45 0 0.210624f
c151 41 0 0.300749f
c152 36 0 0.288845f
c153 32 0 0.079486f
c154 26 0 0.368419f
c155 22 0 0.42863f
r156 529 530 4
r157 526 529 0.0645455
r158 526 527 4
r159 523 526 0.0645455
r160 523 524 4
r161 520 523 0.0645455
r162 520 521 4
r163 517 520 0.0645455
r164 517 518 4
r165 514 517 0.0645455
r166 514 515 4
r167 511 514 0.0645455
r168 511 512 4
r169 508 511 0.0645455
r170 508 509 4
r171 505 508 0.0645455
r172 505 506 4
r173 502 505 0.0645455
r174 502 503 4
r175 499 502 0.0645455
r176 499 500 4
r177 496 499 0.0645455
r178 496 497 4
r179 493 496 0.0645455
r180 493 494 4
r181 490 493 0.0645455
r182 490 491 4
r183 487 490 0.0645455
r184 487 488 4
r185 484 487 0.0645455
r186 484 485 4
r187 481 484 0.0645455
r188 481 482 4
r189 478 481 0.0645455
r190 478 479 4
r191 475 478 0.0645455
r192 475 476 4
r193 432 471 38.75
r194 429 530 0.0387234
r195 428 429 4.4184
r196 426 471 10.273
r197 426 428 4.56338
r198 425 470 10.273
r199 425 428 4.56338
r200 423 470 90.5
r201 409 419 38.75
r202 409 411 38.75
r203 408 527 0.0387234
r204 407 408 4.4184
r205 405 409 7.79049
r206 405 407 2.73034
r207 404 407 2.73034
r208 400 404 7.79049
r209 400 415 90.5
r210 400 402 90.5
r211 388 398 38.75
r212 388 390 38.75
r213 387 524 0.0387234
r214 386 387 4.4184
r215 384 388 7.79049
r216 384 386 2.73034
r217 383 386 2.73034
r218 379 383 7.79049
r219 379 394 90.5
r220 379 381 90.5
r221 367 377 38.75
r222 367 369 38.75
r223 366 521 0.0387234
r224 365 366 4.4184
r225 363 367 7.79049
r226 363 365 2.73034
r227 362 365 2.73034
r228 358 362 7.79049
r229 358 373 90.5
r230 358 360 90.5
r231 346 356 38.75
r232 346 348 38.75
r233 345 518 0.0387234
r234 344 345 4.4184
r235 342 346 7.79049
r236 342 344 2.73034
r237 341 344 2.73034
r238 337 341 7.79049
r239 337 352 90.5
r240 337 339 90.5
r241 325 335 38.75
r242 325 327 38.75
r243 324 515 0.0387234
r244 323 324 4.4184
r245 321 325 7.79049
r246 321 323 2.73034
r247 320 323 2.73034
r248 316 320 7.79049
r249 316 331 90.5
r250 316 318 90.5
r251 304 314 38.75
r252 304 306 38.75
r253 303 512 0.0387234
r254 302 303 4.4184
r255 300 304 7.79049
r256 300 302 2.73034
r257 299 302 2.73034
r258 295 299 7.79049
r259 295 310 90.5
r260 295 297 90.5
r261 283 293 38.75
r262 283 285 38.75
r263 282 509 0.0387234
r264 281 282 4.4184
r265 279 283 7.79049
r266 279 281 2.73034
r267 278 281 2.73034
r268 274 278 7.79049
r269 274 289 90.5
r270 274 276 90.5
r271 262 272 38.75
r272 262 264 38.75
r273 261 506 0.0387234
r274 260 261 4.4184
r275 258 262 7.79049
r276 258 260 2.73034
r277 257 260 2.73034
r278 253 257 7.79049
r279 253 268 90.5
r280 253 255 90.5
r281 241 251 38.75
r282 241 243 38.75
r283 240 503 0.0387234
r284 239 240 4.4184
r285 237 241 7.79049
r286 237 239 2.73034
r287 236 239 2.73034
r288 232 236 7.79049
r289 232 247 90.5
r290 232 234 90.5
r291 220 230 38.75
r292 220 222 38.75
r293 219 500 0.0387234
r294 218 219 4.4184
r295 216 220 7.79049
r296 216 218 2.73034
r297 215 218 2.73034
r298 211 215 7.79049
r299 211 226 90.5
r300 211 213 90.5
r301 199 209 38.75
r302 199 201 38.75
r303 198 497 0.0387234
r304 197 198 4.4184
r305 195 199 7.79049
r306 195 197 2.73034
r307 194 197 2.73034
r308 190 194 7.79049
r309 190 205 90.5
r310 190 192 90.5
r311 178 188 38.75
r312 178 180 38.75
r313 177 494 0.0387234
r314 176 177 4.4184
r315 174 178 7.79049
r316 174 176 2.73034
r317 173 176 2.73034
r318 169 173 7.79049
r319 169 184 90.5
r320 169 171 90.5
r321 157 167 38.75
r322 157 159 38.75
r323 156 491 0.0387234
r324 155 156 4.4184
r325 153 157 7.79049
r326 153 155 2.73034
r327 152 155 2.73034
r328 148 152 7.79049
r329 148 163 90.5
r330 148 150 90.5
r331 136 146 38.75
r332 136 138 38.75
r333 135 488 0.0387234
r334 134 135 4.4184
r335 132 136 7.79049
r336 132 134 2.73034
r337 131 134 2.73034
r338 127 131 7.79049
r339 127 142 90.5
r340 127 129 90.5
r341 115 125 38.75
r342 115 117 38.75
r343 114 485 0.0387234
r344 113 114 4.4184
r345 111 115 7.79049
r346 111 113 2.73034
r347 110 113 2.73034
r348 106 110 7.79049
r349 106 121 90.5
r350 106 108 90.5
r351 94 104 38.75
r352 94 96 38.75
r353 93 482 0.0387234
r354 92 93 4.4184
r355 90 94 7.79049
r356 90 92 2.73034
r357 89 92 2.73034
r358 85 89 7.79049
r359 85 100 90.5
r360 85 87 90.5
r361 73 83 38.75
r362 73 75 38.75
r363 72 479 0.0387234
r364 71 72 4.4184
r365 69 73 7.79049
r366 69 71 2.73034
r367 68 71 2.73034
r368 64 68 7.79049
r369 64 79 90.5
r370 64 66 90.5
r371 52 62 38.75
r372 52 54 38.75
r373 51 476 0.0387234
r374 50 51 4.4184
r375 48 52 7.79049
r376 48 50 2.73034
r377 47 50 2.73034
r378 43 47 7.79049
r379 43 58 90.5
r380 43 45 90.5
r381 40 41 16.3327
r382 38 40 4.77
r383 35 36 5.44423
r384 33 35 1.59
r385 31 41 0.259149
r386 31 32 0.0296412
r387 30 36 0.271809
r388 30 32 0.0296412
r389 29 475 0.259545
r390 26 29 8
r391 24 26 0.567447
r392 23 32 0.00770322
r393 22 24 0.039111
r394 22 23 0.674681
.ends

.subckt PM_INV_CHAIN_3%NODE2 731 792 797 798 802 803 807 808 812 813 817 818 822
+ 823 827 828 832 833 837 838 842 843 847 848 852 853 857 858 862 863 867 868
+ 872 873 877 878 882 883 887 892 893 897 898 902 903 907 908 912 913 917 918
+ 922 923 927 928 932 933 937 938 942 943 947 948 952 953 957 958 962 963 967
+ 968 972 973 977 978 989 993 997 1006 1010 1014 1018 1027 1031 1035 1039 1048
+ 1052 1056 1060 1069 1073 1077 1081 1090 1094 1098 1102 1111 1115 1119 1123
+ 1132 1136 1140 1144 1153 1157 1161 1165 1174 1178 1182 1186 1195 1199 1203
+ 1207 1216 1220 1224 1228 1237 1241 1245 1249 1258 1262 1266 1270 1279 1283
+ 1287 1291 1300 1304 1308 1312 1321 1325 1329 1333 1342 1346 1350 1354 1363
+ 1367 1371 1375 1384 1388 1392 1396 1405 1409 1413 1417 1426 1430 1434 1438
+ 1447 1451 1455 1459 1468 1472 1476 1480 1489 1493 1497 1501 1510 1514 1518
+ 1522 1531 1535 1539 1543 1552 1556 1560 1564 1573 1577 1581 1585 1594 1598
+ 1602 1606 1615 1619 1623 1627 1636 1640 1644 1648 1657 1661 1665 1669 1678
+ 1682 1686 1690 1699 1703 1707 1711 1720 1724 1728 1732 1741 1745 1749 1753
+ 1762 1766 1770 1774 1783 1787 1791 1795 1804 1808 1812 1816 1825 1829 1833
+ 1837 1846 1850 1854 1858 1867 1871 1875 1879 1888 1892 1896 1900 1909 1913
+ 1917 1921 1930 1934 1938 1942 1951 1955 1959 1963 1972 1976 1980 1984 1993
+ 1997 2001 2005 2014 2018 2022 2026 2035 2039 2043 2047 2056 2060 2064 2068
+ 2077 2081 2085 2089 2098 2102 2106 2110 2119 2123 2127 2131 2140 2144 2148
+ 2152 2161 2165 2169 2173 2182 2186 2190 2194 2203 2207 2211 2215 2224 2228
+ 2232 2236 2245 2249 2253 2257 2266 2270 2274 2278 2287 2291 2295 2299 2308
+ 2312 2316 2320 2329 2333 2337 2341 2350 2354 2358 2362 2371 2375 2379 2383
+ 2392 2396 2400 2404 2413 2417 2421 2425 2434 2438 2442 2446 2455 2459 2463
+ 2467 2476 2480 2484 2488 2497 2501 2505 2509 2518 2522 2526 2530 2539 2543
+ 2547 2551 2560 2564 2568 2572 2581 2585 2589 2593 2602 2606 2610 2614 2623
+ 2627 2631 2635 2644 2648 2652 2656 2665 2669 2673 2677 2686 2690 2694 2698
+ 2707 2711 2715 2719 2728 2732 2736 2740 2749 2753 2757 2761 2770 2774 2778
+ 2782 2791 2795 2799 2803 2812 2816 2820 2824 2833 2837 2841 2845 2854 2858
+ 2862 2866 2875 2879 2883 2887 2896 2900 2904 2908 2917 2921 2925 2929 2938
+ 2942 2946 2950 2959 2963 2967 2971 2980 2984 2988 2992 3001 3005 3009 3013
+ 3022 3026 3030 3034 3043 3047 3051 3055 3064 3068 3072 3076 3085 3089 3093
+ 3097 3106 3110 3114 3118 3127 3131 3135 3139 3148 3152 3156 3160 3169 3173
+ 3177 3181 3190 3194 3198 3202 3211 3215 3219 3223 3232 3236 3240 3244 3253
+ 3257 3261 3265 3274 3278 3282 3286 3295 3299 3303 3307 3316 3320 3324 3328
+ 3337 3341 3345 3349 3358 3362 3366 3370 3379 3383 3387 3391 3400 3404 3408
+ 3412 3421 3425 3429 3433 3442 3446 3450 3454 3463 3467 3471 3475 3484 3488
+ 3492 3496 3505 3509 3513 3517 3526 3530 3534 3538 3547 3551 3555 3559 3568
+ 3572 3576 3580 3589 3593 3597 3601 3610 3614 3618 3622 3631 3635 3639 3643
+ 3652 3656 3660 3664 3673 3677 3681 3685 3694 3698 3702 3706 3715 3719 3723
+ 3727 3736 3740 3744 3748 3757 3761 3765 3769 3778 3782 3786 3790 3799 3803
+ 3807 3811 3820 3824 3828 3832 3841 3845 3849 3853 3862 3866 3870 3874 3883
+ 3887 3891 3895 3904 3908 3912 3916 3925 3929 3933 3937 3946 3950 3954 3958
+ 3967 3971 3975 3979 3988 3992 3996 4000 4009 4013 4017 4021 4030 4034 4038
+ 4042 4051 4055 4059 4063 4072 4076 4080 4084 4093 4097 4101 4105 4114 4118
+ 4122 4126 4135 4139 4143 4147 4156 4160 4164 4168 4177 4181 4185 4189 4198
+ 4202 4206 4210 4219 4223 4227 4231 4240 4244 4248 4252 4261 4265 4269 4273
+ 4282 4286 4290 4294 4303 4307 4311 4315 4324 4328 4332 4336 4345 4349 4353
+ 4357 4366 4370 4374 4378 4387 4391 4395 4399 4408 4412 4416 4420 4429 4433
+ 4437 4441 4450 4454 4458 4462 4471 4475 4479 4483 4492 4496 4500 4504 4513
+ 4517 4521 4525 4534 4538 4542 4546 4555 4559 4563 4567 4576 4580 4584 4588
+ 4597 4601 4605 4609 4618 4622 4626 4630 4639 4643 4647 4651 4660 4664 4668
+ 4672 4681 4685 4689 4693 4702 4706 4710 4714 4723 4727 4731 4735 4744 4748
+ 4752 4756 4765 4769 4773 4777 4786 4790 4794 4798 4807 4811 4815 4819 4828
+ 4832 4836 4840 4849 4853 4857 4861 4870 4874 4878 4882 4891 4895 4899 4903
+ 4912 4916 4920 4924 4933 4937 4941 4945 4954 4958 4962 4966 4975 4979 4983
+ 4987 4996 5000 5004 5008 5017 5021 5025 5029 5038 5042 5046 5050 5059 5063
+ 5067 5071 5080 5084 5088 5092 5101 5105 5109 5113 5122 5126 5130 5134 5143
+ 5147 5151 5155 5164 5168 5172 5176 5185 5189 5193 5197 5206 5210 5214 5218
+ 5227 5231 5235 5239 5248 5252 5256 5260 5269 5273 5277 5281 5290 5294 5298
+ 5302 5311 5315 5319 5323 5332 5336 5340 5344 5353 5357 5361 5365 5374 5378
+ 5382 5386 5395 5399 5403 5407 5416 5420 5424 5428 5437 5441 5445 5449 5458
+ 5462 5466 5470 5479 5483 5487 5491 5500 5504 5508 5512 5521 5525 5529 5533
+ 5542 5546 5550 5554 5563 5567 5571 5575 5584 5588 5592 5596 5605 5609 5613
+ 5617 5626 5630 5634 5638 5647 5651 5655 5659 5668 5672 5676 5680 5689 5693
+ 5697 5701 5710 5714 5718 5722 5731 5735 5739 5743 5752 5756 5760 5764 5773
+ 5777 5781 5785 5794 5798 5802 5806 5815 5819 5823 5827 5836 5840 5844 5848
+ 5857 5861 5865 5869 5878 5882 5886 5890 5899 5903 5907 5911 5920 5924 5928
+ 5932 5941 5945 5949 5953 5962 5966 5970 5974 5983 5987 5991 5995 6004 6008
+ 6012 6016 6025 6029 6033 6037 6046 6050 6054 6058 6067 6071 6075 6079 6088
+ 6092 6096 6100 6109 6113 6117 6121 6130 6134 6138 6142 6151 6155 6159 6163
+ 6172 6176 6180 6184 6193 6197 6201 6205 6214 6218 6222 6226 6235 6239 6243
+ 6247 6256 6260 6264 6268 6277 6281 6285 6289 6298 6302 6306 6310 6319 6323
+ 6327 6331 6340 6344 6348 6352 6361 6365 6369 6373 6382 6386 6390 6394 6403
+ 6407 6411 6415 6424 6428 6432 6436 6445 6449 6453 6457 6466 6470 6474 6478
+ 6487 6491 6495 6499 6508 6512 6516 6520 6529 6533 6537 6541 6550 6554 6558
+ 6562 6571 6575 6579 6583 6592 6596 6600 6604 6613 6617 6621 6625 6634 6638
+ 6642 6646 6655 6659 6663 6667 6676 6680 6684 6688 6697 6701 6705 6709 6718
+ 6722 6726 6730 6739 6743 6747 6751 6760 6764 6768 6772 6781 6785 6789 6793
+ 6802 6806 6810 6814 6823 6827 6831 6835 6844 6848 6852 6856 6865 6869 6873
+ 6877 6886 6890 6894 6898 6907 6911 6915 6919 6928 6932 6936 6940 6949 6953
+ 6957 6961 6970 6974 6978 6982 6991 6995 6999 7003 7012 7016 7020 7024 7033
+ 7037 7041 7045 7054 7058 7062 7066 7075 7079 7083 7087 7096 7100 7104 7108
+ 7117 7121 7125 7129 7138 7142 7146 7150 7159 7163 7167 7171 7180 7184 7188
+ 7192 7201 7205 7209 7213 7222 7226 7230 7234 7243 7247 7251 7255 7264 7268
+ 7272 7276 7285 7289 7293 7297 7306 7310 7314 7318 7327 7331 7335 7339 7348
+ 7352 7356 7360 7369 7373 7377 7381 7390 7394 7398 7402 7411 7415 7419 7423
+ 7432 7436 7440 7444 7453 7457 7461 7465 7474 7478 7482 7486 7495 7499 7503
+ 7507 7516 7520 7524 7528 7537 7541 7545 7549 7558 7562 7566 7570 7579 7583
+ 7587 7591 7600 7604 7608 7612 7621 7625 7629 7633 7642 7646 7650 7654 7663
+ 7667 7671 7675 7684 7688 7692 7696 7705 7709 7713 7717 7726 7730 7734 7738
+ 7747 7751 7755 7759 7768 7772 7776 7780 7789 7793 7797 7801 7810 7814 7818
+ 7822 7831 7835 7839 7843 7852 7856 7860 7864 7873 7877 7881 7885 7894 7898
+ 7902 7906 7915 7919 7923 7927 7936 7940 7944 7948 7957 7961 7965 7969 7978
+ 7982 7986 7990 7999 8003 8007 8011 8020 8024 8028 8032 8041 8045 8049 8053
+ 8062 8066 8070 8074 8083 8087 8091 8095 8104 8108 8112 8116 8125 8129 8133
+ 8137 8146 8150 8154 8158 8167 8171 8175 8179 8188 8192 8196 8200 8209 8213
+ 8217 8221 8230 8234 8238 8242 8251 8255 8259 8263 8272 8276 8280 8284 8293
+ 8297 8301 8305 8314 8318 8322 8326 8335 8339 8343 8347 8356 8360 8364 8368
+ 8377 8381 8385 8389 8398 8402 8406 8410 8419 8423 8427 8431 8440 8444 8448
+ 8452 8461 8465 8469 8473 8482 8486 8490 8494 8503 8507 8511 8515 8524 8528
+ 8532 8536 8545 8549 8553 8557 8566 8570 8574 8578 8587 8591 8595 8599 8608
+ 8612 8616 8620 8629 8633 8637 8641 8650 8654 8658 8662 8671 8675 8679 8683
+ 8692 8696 8700 8704 8713 8717 8721 8725 8734 8738 8742 8746 8755 8759 8763
+ 8767 8776 8780 8784 8788 8797 8801 8805 8809 8818 8822 8826 8830 8839 8843
+ 8847 8851 8860 8864 8868 8872 8881 8885 8889 8893 8902 8906 8910 8914 8923
+ 8927 8931 8935 8944 8948 8952 8956 8965 8969 8973 8977 8986 8990 8994 8998
+ 9007 9011 9015 9019 9028 9032 9036 9040 9049 9053 9057 9061 9070 9074 9078
+ 9082 9091 9095 9099 9103 9112 9116 9120 9124 9133 9137 9141 9145 9154 9158
+ 9162 9166 9175 9179 9183 9187 9196 9200 9204 9208 9217 9221 9225 9229 9238
+ 9242 9246 9250 9259 9263 9267 9271 9280 9284 9288 9292 9301 9305 9309 9313
+ 9322 9326 9330 9334 9343 9347 9351 9355 9364 9368 9372 9376 9385 9389 9393
+ 9397 9406 9410 9414 9418 9427 9431 9435 9439 9448 9452 9456 9460 9469 9473
+ 9477 9481 9490 9494 9498 9502 9511 9515 9519 9523 9532 9536 9540 9544 9553
+ 9557 9561 9565 9574 9578 9582 9586 9595 9599 9603 9607 9616 9620 9624 9628
+ 9637 9641 9645 9649 9658 9662 9666 9670 9679 9683 9687 9691 9700 9704 9708
+ 9712 9721 9725 9729 9733 9742 9746 9750 9754 9763 9767 9771 9775 9784 9788
+ 9792 9796 9805 9809 9813 9817 9826 9830 9834 9838 9847 9851 9855 9859 9868
+ 9872 9876 9880 9889 9893 9897 9901 9910 9914 9918 9922 9931 9935 9939 9943
+ 9952 9956 9960 9964 9973 9977 9981 9985 9994 9998 10002 10006 10015 10019
+ 10023 10027 10036 10040 10044 10048 10057 10061 10065 10069 10078 10082 10086
+ 10090 10099 10103 10107 10111 10120 10124 10128 10132 10141 10145 10149 10153
+ 10162 10166 10170 10174 10183 10187 10191 10195 10204 10208 10212 10216 10225
+ 10229 10233 10237 10246 10250 10254 10258 10267 10271 10275 10279 10288 10292
+ 10296 10300 10309 10313 10317 10321 10330 10334 10338 10342 10351 10355 10359
+ 10363 10372 10376 10380 10384 10393 10397 10401 10405 10414 10418 10422 10426
+ 10435 10439 10443 10447 10456 10460 10464 10468 10477 10481 10485 10489 10498
+ 10502 10506 10510 10519 10523 10527 10531 10540 10544 10548 10552 10561 10565
+ 10569 10573 10582 10586 10590 10594 10603 10607 10611 10615 10624 10628 10632
+ 10636 10645 10649 10653 10657 10666 10670 10674 10678 10687 10691 10695 10699
+ 10708 10712 10716 10720 10729 10733 10737 10741 10750 10754 10758 10762 10771
+ 10775 10779 10783 10792 10796 10800 10804 10813 10817 10821 10825 10834 10838
+ 10842 10846 10855 10859 10863 10867 10876 10880 10884 10888 10897 10901 10905
+ 10909 10918 10922 10926 10930 10939 10943 10947 10951 10960 10964 10968 10972
+ 10981 10985 10989 10993 11002 11006 11010 11014 11023 11027 11031 11035 11044
+ 11048 11052 11056 11065 11069 11073 11077 11086 11090 11094 11098 11107 11111
+ 11115 11119 11128 11132 11136 11140 11149 11153 11157 11161 11170 11174 11178
+ 11182 11191 11195 11199 11203 11212 11216 11220 11224 11233 11237 11241 11245
+ 11254 11258 11262 11266 11275 11279 11283 11287 11296 11300 11304 11308 11317
+ 11321 11325 11329 11338 11342 11346 11350 11359 11363 11367 11371 11380 11384
+ 11388 11392 11401 11405 11409 11413 11422 11426 11430 11434 11443 11447 11451
+ 11455 11464 11468 11472 11476 11485 11489 11493 11497 11506 11510 11514 11518
+ 11527 11531 11535 11539 11548 11552 11556 11560 11569 11573 11577 11581 11590
+ 11594 11598 11602 11611 11615 11619 11623 11632 11636 11640 11644 11653 11657
+ 11661 11665 11674 11678 11682 11686 11695 11699 11703 11707 11716 11720 11724
+ 11728 11737 11741 11745 11749 11758 11762 11766 11770 11779 11783 11787 11791
+ 11800 11804 11808 11812 11821 11825 11829 11833 11842 11846 11850 11854 11863
+ 11867 11871 11875 11884 11888 11892 11896 11905 11909 11913 11917 11926 11930
+ 11934 11938 11947 11951 11955 11959 11968 11972 11976 11980 11989 11993 11997
+ 12001 12010 12014 12018 12022 12031 12035 12039 12043 12052 12056 12060 12064
+ 12073 12077 12081 12085 12094 12098 12102 12106 12115 12119 12123 12127 12136
+ 12140 12144 12148 12157 12161 12165 12169 12178 12182 12186 12190 12199 12203
+ 12207 12211 12220 12224 12228 12232 12241 12245 12249 12253 12262 12266 12270
+ 12274 12283 12287 12291 12295 12304 12308 12312 12316 12325 12329 12333 12337
+ 12346 12350 12354 12358 12367 12371 12375 12379 12388 12392 12396 12400 12409
+ 12413 12417 12421 12430 12434 12438 12442 12451 12455 12459 12463 12472 12476
+ 12480 12484 12493 12497 12501 12505 12514 12518 12522 12526 12535 12539 12543
+ 12547 12556 12560 12564 12568 12577 12581 12585 12589 12598 12602 12606 12610
+ 12619 12623 12627 12631 12640 12644 12648 12652 12661 12665 12669 12673 12682
+ 12686 12690 12694 12703 12707 12711 12715 12724 12728 12732 12736 12745 12749
+ 12753 12757 12766 12770 12774 12778 12787 12791 12795 12799 12808 12812 12816
+ 12820 12829 12833 12837 12841 12850 12854 12858 12862 12871 12875 12879 12883
+ 12892 12896 12900 12904 12913 12917 12921 12925 12934 12938 12942 12946 12955
+ 12959 12963 12967 12976 12980 12984 12988 12997 13001 13005 13009 13018 13022
+ 13026 13030 13039 13043 13047 13051 13060 13064 13068 13072 13081 13085 13089
+ 13093 13102 13106 13110 13114 13123 13127 13131 13135 13144 13148 13152 13156
+ 13165 13169 13173 13177 13186 13190 13194 13198 13207 13211 13215 13219 13228
+ 13232 13236 13240 13249 13253 13257 13261 13270 13274 13278 13282 13291 13295
+ 13299 13303 13312 13316 13320 13324 13333 13337 13341 13345 13354 13358 13362
+ 13366 13375 13379 13383 13387 13396 13400 13404 13408 13417 13421 13425 13429
+ 13438 13442 13446 13450 13459 13463 13467 13471 13480 13484 13488 13492 13501
+ 13505 13509 13513 13522 13526 13530 13534 13543 13547 13551 13555 13564 13568
+ 13572 13576 13585 13589 13593 13597 13606 13610 13614 13618 13627 13631 13635
+ 13639 13648 13652 13656 13660 13669 13673 13677 13681 13690 13694 13698 13702
+ 13711 13715 13719 13723 13732 13736 13740 13744 13753 13757 13761 13765 13774
+ 13778 13782 13786 13795 13799 13803 13807 13816 13820 13824 13828 13837 13841
+ 13845 13849 13858 13862 13866 13870 13879 13883 13887 13891 13900 13904 13908
+ 13912 13921 13925 13929 13933 13942 13946 13950 13954 13963 13967 13971 13975
+ 13984 13988 13992 13996 14005 14009 14013 14017 14026 14030 14034 14038 14047
+ 14051 14055 14059 14068 14072 14076 14080 14089 14093 14097 14101 14110 14114
+ 14118 14122 14131 14135 14139 14143 14152 14156 14160 14164 14173 14177 14181
+ 14185 14194 14198 14202 14206 14215 14219 14223 14227 14236 14240 14244 14248
+ 14257 14261 14265 14269 14278 14282 14286 14290 14299 14303 14307 14311 14320
+ 14324 14328 14332 14341 14345 14349 14353 14362 14366 14370 14374 14383 14387
+ 14391 14395 14404 14408 14412 14416 14425 14429 14433 14437 14446 14450 14454
+ 14458 14467 14471 14475 14479 14488 14492 14496 14500 14509 14513 14517 14521
+ 14530 14534 14538 14542 14551 14555 14559 14563 14572 14576 14580 14584 14593
+ 14597 14601 14605 14614 14618 14622 14626 14635 14639 14643 14647 14656 14660
+ 14664 14668 14677 14681 14685 14689 14698 14702 14706 14710 14719 14723 14727
+ 14731 14740 14744 14748 14752 14761 14765 14769 14773 14782 14786 14790 14794
+ 14803 14807 14811 14815 14824 14828 14832 14836 14845 14849 14853 14857 14866
+ 14870 14874 14878 14887 14891 14895 14899 14908 14912 14916 14920 14929 14933
+ 14937 14941 14950 14954 14958 14962 14971 14975 14979 14983 14992 14996 15000
+ 15004 15013 15017 15021 15025 15034 15038 15042 15046 15055 15059 15063 15067
+ 15076 15080 15084 15088 15097 15101 15105 15109 15118 15122 15126 15130 15139
+ 15143 15147 15151 15160 15164 15168 15172 15181 15185 15189 15193 15202 15206
+ 15210 15214 15223 15227 15231 15235 15244 15248 15252 15256 15265 15269 15273
+ 15277 15286 15290 15294 15298 15307 15311 15315 15319 15328 15332 15336 15340
+ 15349 15353 15357 15361 15370 15374 15378 15382 15391 15395 15399 15403 15412
c0 18854 0 0.835685f
c1 18830 0 6.34861f
c2 18644 0 6.34875f
c3 18458 0 6.34861f
c4 18272 0 6.34875f
c5 18086 0 6.34861f
c6 17900 0 6.34875f
c7 17714 0 6.34861f
c8 17528 0 6.34875f
c9 17342 0 6.34861f
c10 17156 0 6.34875f
c11 16970 0 6.47571f
c12 16789 0 0.0696682f
c13 15415 0 0.0676767f
c14 15412 0 0.102141f
c15 15409 0 0.204096f
c16 15408 0 0.10317f
c17 15405 0 0.0723405f
c18 15403 0 0.211636f
c19 15399 0 0.0875884f
c20 15395 0 0.187111f
c21 15391 0 0.0875884f
c22 15389 0 0.0843954f
c23 15388 0 0.335389f
c24 15387 0 0.0796617f
c25 15384 0 0.0870663f
c26 15382 0 0.187111f
c27 15378 0 0.0875884f
c28 15374 0 0.187111f
c29 15370 0 0.0875884f
c30 15368 0 0.0843954f
c31 15367 0 0.335389f
c32 15366 0 0.0796617f
c33 15363 0 0.0870663f
c34 15361 0 0.187111f
c35 15357 0 0.0875884f
c36 15353 0 0.187111f
c37 15349 0 0.0875884f
c38 15347 0 0.0843954f
c39 15346 0 0.335389f
c40 15345 0 0.0796617f
c41 15342 0 0.0870663f
c42 15340 0 0.187111f
c43 15336 0 0.0875884f
c44 15332 0 0.187111f
c45 15328 0 0.0875884f
c46 15326 0 0.0843954f
c47 15325 0 0.335389f
c48 15324 0 0.0796617f
c49 15321 0 0.0870663f
c50 15319 0 0.187111f
c51 15315 0 0.0875884f
c52 15311 0 0.187111f
c53 15307 0 0.0875884f
c54 15305 0 0.0843954f
c55 15304 0 0.335389f
c56 15303 0 0.0796617f
c57 15300 0 0.0870663f
c58 15298 0 0.187111f
c59 15294 0 0.0875884f
c60 15290 0 0.187111f
c61 15286 0 0.0875884f
c62 15284 0 0.0843954f
c63 15283 0 0.335389f
c64 15282 0 0.0796617f
c65 15279 0 0.0870663f
c66 15277 0 0.187111f
c67 15273 0 0.0875884f
c68 15269 0 0.187111f
c69 15265 0 0.0875884f
c70 15263 0 0.0843954f
c71 15262 0 0.335389f
c72 15261 0 0.0796617f
c73 15258 0 0.0870663f
c74 15256 0 0.187111f
c75 15252 0 0.0875884f
c76 15248 0 0.187111f
c77 15244 0 0.0875884f
c78 15242 0 0.0843954f
c79 15241 0 0.335404f
c80 15240 0 0.0796617f
c81 15237 0 0.0870663f
c82 15235 0 0.187111f
c83 15231 0 0.0875884f
c84 15227 0 0.187111f
c85 15223 0 0.0875884f
c86 15221 0 0.0843954f
c87 15220 0 0.335389f
c88 15219 0 0.0796617f
c89 15216 0 0.0870663f
c90 15214 0 0.187111f
c91 15210 0 0.0875884f
c92 15206 0 0.187111f
c93 15202 0 0.0875884f
c94 15200 0 0.0843954f
c95 15199 0 0.335389f
c96 15198 0 0.0796617f
c97 15195 0 0.0870663f
c98 15193 0 0.187111f
c99 15189 0 0.0875884f
c100 15185 0 0.187111f
c101 15181 0 0.0875884f
c102 15179 0 0.0843954f
c103 15178 0 0.335389f
c104 15177 0 0.0796617f
c105 15174 0 0.0870663f
c106 15172 0 0.187111f
c107 15168 0 0.0875884f
c108 15164 0 0.187111f
c109 15160 0 0.0875884f
c110 15158 0 0.0843954f
c111 15157 0 0.335389f
c112 15156 0 0.0796617f
c113 15153 0 0.0870663f
c114 15151 0 0.187111f
c115 15147 0 0.0875884f
c116 15143 0 0.187111f
c117 15139 0 0.0875884f
c118 15137 0 0.0843954f
c119 15136 0 0.335389f
c120 15135 0 0.0796617f
c121 15132 0 0.0870663f
c122 15130 0 0.187111f
c123 15126 0 0.0875884f
c124 15122 0 0.187111f
c125 15118 0 0.0875884f
c126 15116 0 0.0843954f
c127 15115 0 0.335389f
c128 15114 0 0.0796617f
c129 15111 0 0.0870663f
c130 15109 0 0.187111f
c131 15105 0 0.0875884f
c132 15101 0 0.187111f
c133 15097 0 0.0875884f
c134 15095 0 0.0843954f
c135 15094 0 0.335389f
c136 15093 0 0.0796617f
c137 15090 0 0.0870663f
c138 15088 0 0.187111f
c139 15084 0 0.0875884f
c140 15080 0 0.187111f
c141 15076 0 0.0875884f
c142 15074 0 0.0843954f
c143 15073 0 0.335389f
c144 15072 0 0.0796617f
c145 15069 0 0.0870663f
c146 15067 0 0.187111f
c147 15063 0 0.0875884f
c148 15059 0 0.187111f
c149 15055 0 0.0875884f
c150 15053 0 0.0843954f
c151 15052 0 0.335389f
c152 15051 0 0.0796617f
c153 15048 0 0.0870663f
c154 15046 0 0.187111f
c155 15042 0 0.0875884f
c156 15038 0 0.187111f
c157 15034 0 0.0875884f
c158 15032 0 0.0843954f
c159 15031 0 0.335389f
c160 15030 0 0.0796617f
c161 15027 0 0.0870663f
c162 15025 0 0.187111f
c163 15021 0 0.0875884f
c164 15017 0 0.187111f
c165 15013 0 0.0875884f
c166 15011 0 0.0843954f
c167 15010 0 0.335389f
c168 15009 0 0.0796617f
c169 15006 0 0.0870663f
c170 15004 0 0.187111f
c171 15000 0 0.0875884f
c172 14996 0 0.187111f
c173 14992 0 0.0875884f
c174 14990 0 0.0843954f
c175 14989 0 0.335389f
c176 14988 0 0.0796617f
c177 14985 0 0.0870663f
c178 14983 0 0.187111f
c179 14979 0 0.0875884f
c180 14975 0 0.187111f
c181 14971 0 0.0875884f
c182 14969 0 0.0843954f
c183 14968 0 0.335389f
c184 14967 0 0.0796617f
c185 14964 0 0.0870663f
c186 14962 0 0.187111f
c187 14958 0 0.0875884f
c188 14954 0 0.187111f
c189 14950 0 0.0875884f
c190 14948 0 0.0843954f
c191 14947 0 0.335389f
c192 14946 0 0.0796617f
c193 14943 0 0.0870663f
c194 14941 0 0.187111f
c195 14937 0 0.0875884f
c196 14933 0 0.187111f
c197 14929 0 0.0875884f
c198 14927 0 0.0843954f
c199 14926 0 0.335389f
c200 14925 0 0.0796617f
c201 14922 0 0.0870663f
c202 14920 0 0.187111f
c203 14916 0 0.0875884f
c204 14912 0 0.187111f
c205 14908 0 0.0875884f
c206 14906 0 0.0843954f
c207 14905 0 0.335389f
c208 14904 0 0.0796617f
c209 14901 0 0.0870663f
c210 14899 0 0.187111f
c211 14895 0 0.0875884f
c212 14891 0 0.187111f
c213 14887 0 0.0875884f
c214 14885 0 0.0843954f
c215 14884 0 0.335389f
c216 14883 0 0.0796617f
c217 14880 0 0.0870663f
c218 14878 0 0.187111f
c219 14874 0 0.0875884f
c220 14870 0 0.187111f
c221 14866 0 0.0875884f
c222 14864 0 0.0843954f
c223 14863 0 0.335389f
c224 14862 0 0.0796617f
c225 14859 0 0.0870663f
c226 14857 0 0.187111f
c227 14853 0 0.0875884f
c228 14849 0 0.187111f
c229 14845 0 0.0875884f
c230 14843 0 0.0843954f
c231 14842 0 0.335389f
c232 14841 0 0.0796617f
c233 14838 0 0.0870663f
c234 14836 0 0.187111f
c235 14832 0 0.0875884f
c236 14828 0 0.187111f
c237 14824 0 0.0875884f
c238 14822 0 0.0843954f
c239 14821 0 0.335389f
c240 14820 0 0.0796617f
c241 14817 0 0.0870663f
c242 14815 0 0.187111f
c243 14811 0 0.0875884f
c244 14807 0 0.187111f
c245 14803 0 0.0875884f
c246 14801 0 0.0843954f
c247 14800 0 0.335389f