* File: inv_chain_3.pex.netlist
* Created: Fri Nov 29 06:02:57 2019
* Program "Calibre xRC"
* Version "v2016.4_15.11"
* 
.include "inv_chain_3.pex.netlist.pex"
.subckt inv_chain_3  VIN NODE1 NODE2 VSS VDD VOUT
* 
* VOUT	VOUT
* VDD	VDD
* VSS	VSS
* NODE2	NODE2
* NODE1	NODE1
* VIN	VIN
MM0 N_NODE1_MM0_d N_VIN_MM0_g N_VSS_MM0_s N_VSS_MM0_b N_18 L=1.8e-07 W=5e-07
+ AD=2.65e-13 AS=2.65e-13 PD=1.56e-06 PS=1.56e-06
MM1 N_NODE2_MM1_d N_NODE1_MM1_g N_VSS_MM1_s N_VSS_MM0_b N_18 L=1.8e-07 W=5e-07
+ AD=2.65e-13 AS=1.325e-13 PD=1.56e-06 PS=5.3e-07
MM1@37 N_NODE2_MM1@37_d N_NODE1_MM1@37_g N_VSS_MM1@37_s N_VSS_MM0_b N_18
+ L=1.8e-07 W=5e-07 AD=1.325e-13 AS=1.325e-13 PD=5.3e-07 PS=5.3e-07
MM1@36 N_NODE2_MM1@36_d N_NODE1_MM1@36_g N_VSS_MM1@36_s N_VSS_MM0_b N_18
+ L=1.8e-07 W=5e-07 AD=1.325e-13 AS=1.325e-13 PD=5.3e-07 PS=5.3e-07
MM1@35 N_NODE2_MM1@35_d N_NODE1_MM1@35_g N_VSS_MM1@35_s N_VSS_MM0_b N_18
+ L=1.8e-07 W=5e-07 AD=1.325e-13 AS=1.325e-13 PD=5.3e-07 PS=5.3e-07
MM1@34 N_NODE2_MM1@34_d N_NODE1_MM1@34_g N_VSS_MM1@34_s N_VSS_MM0_b N_18
+ L=1.8e-07 W=5e-07 AD=1.325e-13 AS=1.325e-13 PD=5.3e-07 PS=5.3e-07
MM1@33 N_NODE2_MM1@33_d N_NODE1_MM1@33_g N_VSS_MM1@33_s N_VSS_MM0_b N_18
+ L=1.8e-07 W=5e-07 AD=1.325e-13 AS=1.325e-13 PD=5.3e-07 PS=5.3e-07
MM1@32 N_NODE2_MM1@32_d N_NODE1_MM1@32_g N_VSS_MM1@32_s N_VSS_MM0_b N_18
+ L=1.8e-07 W=5e-07 AD=1.325e-13 AS=1.325e-13 PD=5.3e-07 PS=5.3e-07
MM1@31 N_NODE2_MM1@31_d N_NODE1_MM1@31_g N_VSS_MM1@31_s N_VSS_MM0_b N_18
+ L=1.8e-07 W=5e-07 AD=1.325e-13 AS=1.325e-13 PD=5.3e-07 PS=5.3e-07
MM1@30 N_NODE2_MM1@30_d N_NODE1_MM1@30_g N_VSS_MM1@30_s N_VSS_MM0_b N_18
+ L=1.8e-07 W=5e-07 AD=1.325e-13 AS=1.325e-13 PD=5.3e-07 PS=5.3e-07
MM1@29 N_NODE2_MM1@29_d N_NODE1_MM1@29_g N_VSS_MM1@29_s N_VSS_MM0_b N_18
+ L=1.8e-07 W=5e-07 AD=1.325e-13 AS=1.325e-13 PD=5.3e-07 PS=5.3e-07
MM1@28 N_NODE2_MM1@28_d N_NODE1_MM1@28_g N_VSS_MM1@28_s N_VSS_MM0_b N_18
+ L=1.8e-07 W=5e-07 AD=1.325e-13 AS=1.325e-13 PD=5.3e-07 PS=5.3e-07
MM1@27 N_NODE2_MM1@27_d N_NODE1_MM1@27_g N_VSS_MM1@27_s N_VSS_MM0_b N_18
+ L=1.8e-07 W=5e-07 AD=1.325e-13 AS=1.325e-13 PD=5.3e-07 PS=5.3e-07
MM1@26 N_NODE2_MM1@26_d N_NODE1_MM1@26_g N_VSS_MM1@26_s N_VSS_MM0_b N_18
+ L=1.8e-07 W=5e-07 AD=1.325e-13 AS=1.325e-13 PD=5.3e-07 PS=5.3e-07
MM1@25 N_NODE2_MM1@25_d N_NODE1_MM1@25_g N_VSS_MM1@25_s N_VSS_MM0_b N_18
+ L=1.8e-07 W=5e-07 AD=1.325e-13 AS=1.325e-13 PD=5.3e-07 PS=5.3e-07
MM1@24 N_NODE2_MM1@24_d N_NODE1_MM1@24_g N_VSS_MM1@24_s N_VSS_MM0_b N_18
+ L=1.8e-07 W=5e-07 AD=1.325e-13 AS=1.325e-13 PD=5.3e-07 PS=5.3e-07
MM1@23 N_NODE2_MM1@23_d N_NODE1_MM1@23_g N_VSS_MM1@23_s N_VSS_MM0_b N_18
+ L=1.8e-07 W=5e-07 AD=1.325e-13 AS=1.325e-13 PD=5.3e-07 PS=5.3e-07
MM1@22 N_NODE2_MM1@22_d N_NODE1_MM1@22_g N_VSS_MM1@22_s N_VSS_MM0_b N_18
+ L=1.8e-07 W=5e-07 AD=1.325e-13 AS=1.325e-13 PD=5.3e-07 PS=5.3e-07
MM1@21 N_NODE2_MM1@21_d N_NODE1_MM1@21_g N_VSS_MM1@21_s N_VSS_MM0_b N_18
+ L=1.8e-07 W=5e-07 AD=1.325e-13 AS=1.325e-13 PD=5.3e-07 PS=5.3e-07
MM1@20 N_NODE2_MM1@20_d N_NODE1_MM1@20_g N_VSS_MM1@20_s N_VSS_MM0_b N_18
+ L=1.8e-07 W=5e-07 AD=1.325e-13 AS=1.325e-13 PD=5.3e-07 PS=5.3e-07
MM1@19 N_NODE2_MM1@19_d N_NODE1_MM1@19_g N_VSS_MM1@19_s N_VSS_MM0_b N_18
+ L=1.8e-07 W=5e-07 AD=1.325e-13 AS=1.325e-13 PD=5.3e-07 PS=5.3e-07
MM1@18 N_NODE2_MM1@18_d N_NODE1_MM1@18_g N_VSS_MM1@18_s N_VSS_MM0_b N_18
+ L=1.8e-07 W=5e-07 AD=1.325e-13 AS=1.325e-13 PD=5.3e-07 PS=5.3e-07
MM1@17 N_NODE2_MM1@17_d N_NODE1_MM1@17_g N_VSS_MM1@17_s N_VSS_MM0_b N_18
+ L=1.8e-07 W=5e-07 AD=1.325e-13 AS=1.325e-13 PD=5.3e-07 PS=5.3e-07
MM1@16 N_NODE2_MM1@16_d N_NODE1_MM1@16_g N_VSS_MM1@16_s N_VSS_MM0_b N_18
+ L=1.8e-07 W=5e-07 AD=1.325e-13 AS=1.325e-13 PD=5.3e-07 PS=5.3e-07
MM1@15 N_NODE2_MM1@15_d N_NODE1_MM1@15_g N_VSS_MM1@15_s N_VSS_MM0_b N_18
+ L=1.8e-07 W=5e-07 AD=1.325e-13 AS=1.325e-13 PD=5.3e-07 PS=5.3e-07
MM1@14 N_NODE2_MM1@14_d N_NODE1_MM1@14_g N_VSS_MM1@14_s N_VSS_MM0_b N_18
+ L=1.8e-07 W=5e-07 AD=1.325e-13 AS=1.325e-13 PD=5.3e-07 PS=5.3e-07
MM1@13 N_NODE2_MM1@13_d N_NODE1_MM1@13_g N_VSS_MM1@13_s N_VSS_MM0_b N_18
+ L=1.8e-07 W=5e-07 AD=1.325e-13 AS=1.325e-13 PD=5.3e-07 PS=5.3e-07
MM1@12 N_NODE2_MM1@12_d N_NODE1_MM1@12_g N_VSS_MM1@12_s N_VSS_MM0_b N_18
+ L=1.8e-07 W=5e-07 AD=1.325e-13 AS=1.325e-13 PD=5.3e-07 PS=5.3e-07
MM1@11 N_NODE2_MM1@11_d N_NODE1_MM1@11_g N_VSS_MM1@11_s N_VSS_MM0_b N_18
+ L=1.8e-07 W=5e-07 AD=1.325e-13 AS=1.325e-13 PD=5.3e-07 PS=5.3e-07
MM1@10 N_NODE2_MM1@10_d N_NODE1_MM1@10_g N_VSS_MM1@10_s N_VSS_MM0_b N_18
+ L=1.8e-07 W=5e-07 AD=1.325e-13 AS=1.325e-13 PD=5.3e-07 PS=5.3e-07
MM1@9 N_NODE2_MM1@9_d N_NODE1_MM1@9_g N_VSS_MM1@9_s N_VSS_MM0_b N_18 L=1.8e-07
+ W=5e-07 AD=1.325e-13 AS=1.325e-13 PD=5.3e-07 PS=5.3e-07
MM1@8 N_NODE2_MM1@8_d N_NODE1_MM1@8_g N_VSS_MM1@8_s N_VSS_MM0_b N_18 L=1.8e-07
+ W=5e-07 AD=1.325e-13 AS=1.325e-13 PD=5.3e-07 PS=5.3e-07
MM1@7 N_NODE2_MM1@7_d N_NODE1_MM1@7_g N_VSS_MM1@7_s N_VSS_MM0_b N_18 L=1.8e-07
+ W=5e-07 AD=1.325e-13 AS=1.325e-13 PD=5.3e-07 PS=5.3e-07
MM1@6 N_NODE2_MM1@6_d N_NODE1_MM1@6_g N_VSS_MM1@6_s N_VSS_MM0_b N_18 L=1.8e-07
+ W=5e-07 AD=1.325e-13 AS=1.325e-13 PD=5.3e-07 PS=5.3e-07
MM1@5 N_NODE2_MM1@5_d N_NODE1_MM1@5_g N_VSS_MM1@5_s N_VSS_MM0_b N_18 L=1.8e-07
+ W=5e-07 AD=1.325e-13 AS=1.325e-13 PD=5.3e-07 PS=5.3e-07
MM1@4 N_NODE2_MM1@4_d N_NODE1_MM1@4_g N_VSS_MM1@4_s N_VSS_MM0_b N_18 L=1.8e-07
+ W=5e-07 AD=1.325e-13 AS=1.325e-13 PD=5.3e-07 PS=5.3e-07
MM1@3 N_NODE2_MM1@3_d N_NODE1_MM1@3_g N_VSS_MM1@3_s N_VSS_MM0_b N_18 L=1.8e-07
+ W=5e-07 AD=1.325e-13 AS=1.325e-13 PD=5.3e-07 PS=5.3e-07
MM1@2 N_NODE2_MM1@2_d N_NODE1_MM1@2_g N_VSS_MM1@2_s N_VSS_MM0_b N_18 L=1.8e-07
+ W=5e-07 AD=1.325e-13 AS=2.65e-13 PD=5.3e-07 PS=1.56e-06
MM2 N_VOUT_MM2_d N_NODE2_MM2_g N_VSS_MM2_s N_VSS_MM0_b N_18 L=1.8e-07 W=5e-07
+ AD=1.325e-13 AS=2.65e-13 PD=5.3e-07 PS=1.56e-06
MM2@1374 N_VOUT_MM2@1374_d N_NODE2_MM2@1374_g N_VSS_MM2@1374_s N_VSS_MM0_b N_18
+ L=1.8e-07 W=5e-07 AD=1.325e-13 AS=1.325e-13 PD=5.3e-07 PS=5.3e-07
MM2@1373 N_VOUT_MM2@1373_d N_NODE2_MM2@1373_g N_VSS_MM2@1373_s N_VSS_MM0_b N_18
+ L=1.8e-07 W=5e-07 AD=1.325e-13 AS=1.325e-13 PD=5.3e-07 PS=5.3e-07
MM2@1372 N_VOUT_MM2@1372_d N_NODE2_MM2@1372_g N_VSS_MM2@1372_s N_VSS_MM0_b N_18
+ L=1.8e-07 W=5e-07 AD=1.325e-13 AS=1.325e-13 PD=5.3e-07 PS=5.3e-07
MM2@1371 N_VOUT_MM2@1371_d N_NODE2_MM2@1371_g N_VSS_MM2@1371_s N_VSS_MM0_b N_18
+ L=1.8e-07 W=5e-07 AD=1.325e-13 AS=1.325e-13 PD=5.3e-07 PS=5.3e-07
MM2@1370 N_VOUT_MM2@1370_d N_NODE2_MM2@1370_g N_VSS_MM2@1370_s N_VSS_MM0_b N_18
+ L=1.8e-07 W=5e-07 AD=1.325e-13 AS=1.325e-13 PD=5.3e-07 PS=5.3e-07
MM2@1369 N_VOUT_MM2@1369_d N_NODE2_MM2@1369_g N_VSS_MM2@1369_s N_VSS_MM0_b N_18
+ L=1.8e-07 W=5e-07 AD=1.325e-13 AS=1.325e-13 PD=5.3e-07 PS=5.3e-07
MM2@1368 N_VOUT_MM2@1368_d N_NODE2_MM2@1368_g N_VSS_MM2@1368_s N_VSS_MM0_b N_18
+ L=1.8e-07 W=5e-07 AD=1.325e-13 AS=1.325e-13 PD=5.3e-07 PS=5.3e-07
MM2@1367 N_VOUT_MM2@1367_d N_NODE2_MM2@1367_g N_VSS_MM2@1367_s N_VSS_MM0_b N_18
+ L=1.8e-07 W=5e-07 AD=1.325e-13 AS=1.325e-13 PD=5.3e-07 PS=5.3e-07
MM2@1366 N_VOUT_MM2@1366_d N_NODE2_MM2@1366_g N_VSS_MM2@1366_s N_VSS_MM0_b N_18
+ L=1.8e-07 W=5e-07 AD=1.325e-13 AS=1.325e-13 PD=5.3e-07 PS=5.3e-07
MM2@1365 N_VOUT_MM2@1365_d N_NODE2_MM2@1365_g N_VSS_MM2@1365_s N_VSS_MM0_b N_18
+ L=1.8e-07 W=5e-07 AD=1.325e-13 AS=1.325e-13 PD=5.3e-07 PS=5.3e-07
MM2@1364 N_VOUT_MM2@1364_d N_NODE2_MM2@1364_g N_VSS_MM2@1364_s N_VSS_MM0_b N_18
+ L=1.8e-07 W=5e-07 AD=1.325e-13 AS=1.325e-13 PD=5.3e-07 PS=5.3e-07
MM2@1363 N_VOUT_MM2@1363_d N_NODE2_MM2@1363_g N_VSS_MM2@1363_s N_VSS_MM0_b N_18
+ L=1.8e-07 W=5e-07 AD=1.325e-13 AS=1.325e-13 PD=5.3e-07 PS=5.3e-07
MM2@1362 N_VOUT_MM2@1362_d N_NODE2_MM2@1362_g N_VSS_MM2@1362_s N_VSS_MM0_b N_18
+ L=1.8e-07 W=5e-07 AD=1.325e-13 AS=1.325e-13 PD=5.3e-07 PS=5.3e-07
MM2@1361 N_VOUT_MM2@1361_d N_NODE2_MM2@1361_g N_VSS_MM2@1361_s N_VSS_MM0_b N_18
+ L=1.8e-07 W=5e-07 AD=1.325e-13 AS=1.325e-13 PD=5.3e-07 PS=5.3e-07
MM2@1360 N_VOUT_MM2@1360_d N_NODE2_MM2@1360_g N_VSS_MM2@1360_s N_VSS_MM0_b N_18
+ L=1.8e-07 W=5e-07 AD=1.325e-13 AS=1.325e-13 PD=5.3e-07 PS=5.3e-07
MM2@1359 N_VOUT_MM2@1359_d N_NODE2_MM2@1359_g N_VSS_MM2@1359_s N_VSS_MM0_b N_18
+ L=1.8e-07 W=5e-07 AD=1.325e-13 AS=1.325e-13 PD=5.3e-07 PS=5.3e-07
MM2@1358 N_VOUT_MM2@1358_d N_NODE2_MM2@1358_g N_VSS_MM2@1358_s N_VSS_MM0_b N_18
+ L=1.8e-07 W=5e-07 AD=1.325e-13 AS=1.325e-13 PD=5.3e-07 PS=5.3e-07
MM2@1357 N_VOUT_MM2@1357_d N_NODE2_MM2@1357_g N_VSS_MM2@1357_s N_VSS_MM0_b N_18
+ L=1.8e-07 W=5e-07 AD=1.325e-13 AS=1.325e-13 PD=5.3e-07 PS=5.3e-07
MM2@1356 N_VOUT_MM2@1356_d N_NODE2_MM2@1356_g N_VSS_MM2@1356_s N_VSS_MM0_b N_18
+ L=1.8e-07 W=5e-07 AD=1.325e-13 AS=1.325e-13 PD=5.3e-07 PS=5.3e-07
MM2@1355 N_VOUT_MM2@1355_d N_NODE2_MM2@1355_g N_VSS_MM2@1355_s N_VSS_MM0_b N_18
+ L=1.8e-07 W=5e-07 AD=1.325e-13 AS=1.325e-13 PD=5.3e-07 PS=5.3e-07
MM2@1354 N_VOUT_MM2@1354_d N_NODE2_MM2@1354_g N_VSS_MM2@1354_s N_VSS_MM0_b N_18
+ L=1.8e-07 W=5e-07 AD=1.325e-13 AS=1.325e-13 PD=5.3e-07 PS=5.3e-07
MM2@1353 N_VOUT_MM2@1353_d N_NODE2_MM2@1353_g N_VSS_MM2@1353_s N_VSS_MM0_b N_18
+ L=1.8e-07 W=5e-07 AD=1.325e-13 AS=1.325e-13 PD=5.3e-07 PS=5.3e-07
MM2@1352 N_VOUT_MM2@1352_d N_NODE2_MM2@1352_g N_VSS_MM2@1352_s N_VSS_MM0_b N_18
+ L=1.8e-07 W=5e-07 AD=1.325e-13 AS=1.325e-13 PD=5.3e-07 PS=5.3e-07
MM2@1351 N_VOUT_MM2@1351_d N_NODE2_MM2@1351_g N_VSS_MM2@1351_s N_VSS_MM0_b N_18
+ L=1.8e-07 W=5e-07 AD=1.325e-13 AS=1.325e-13 PD=5.3e-07 PS=5.3e-07
MM2@1350 N_VOUT_MM2@1350_d N_NODE2_MM2@1350_g N_VSS_MM2@1350_s N_VSS_MM0_b N_18
+ L=1.8e-07 W=5e-07 AD=1.325e-13 AS=1.325e-13 PD=5.3e-07 PS=5.3e-07
MM2@1349 N_VOUT_MM2@1349_d N_NODE2_MM2@1349_g N_VSS_MM2@1349_s N_VSS_MM0_b N_18
+ L=1.8e-07 W=5e-07 AD=1.325e-13 AS=1.325e-13 PD=5.3e-07 PS=5.3e-07
MM2@1348 N_VOUT_MM2@1348_d N_NODE2_MM2@1348_g N_VSS_MM2@1348_s N_VSS_MM0_b N_18
+ L=1.8e-07 W=5e-07 AD=1.325e-13 AS=1.325e-13 PD=5.3e-07 PS=5.3e-07
MM2@1347 N_VOUT_MM2@1347_d N_NODE2_MM2@1347_g N_VSS_MM2@1347_s N_VSS_MM0_b N_18
+ L=1.8e-07 W=5e-07 AD=1.325e-13 AS=1.325e-13 PD=5.3e-07 PS=5.3e-07
MM2@1346 N_VOUT_MM2@1346_d N_NODE2_MM2@1346_g N_VSS_MM2@1346_s N_VSS_MM0_b N_18
+ L=1.8e-07 W=5e-07 AD=1.325e-13 AS=1.325e-13 PD=5.3e-07 PS=5.3e-07
MM2@1345 N_VOUT_MM2@1345_d N_NODE2_MM2@1345_g N_VSS_MM2@1345_s N_VSS_MM0_b N_18
+ L=1.8e-07 W=5e-07 AD=1.325e-13 AS=1.325e-13 PD=5.3e-07 PS=5.3e-07
MM2@1344 N_VOUT_MM2@1344_d N_NODE2_MM2@1344_g N_VSS_MM2@1344_s N_VSS_MM0_b N_18
+ L=1.8e-07 W=5e-07 AD=1.325e-13 AS=1.325e-13 PD=5.3e-07 PS=5.3e-07
MM2@1343 N_VOUT_MM2@1343_d N_NODE2_MM2@1343_g N_VSS_MM2@1343_s N_VSS_MM0_b N_18
+ L=1.8e-07 W=5e-07 AD=1.325e-13 AS=1.325e-13 PD=5.3e-07 PS=5.3e-07
MM2@1342 N_VOUT_MM2@1342_d N_NODE2_MM2@1342_g N_VSS_MM2@1342_s N_VSS_MM0_b N_18
+ L=1.8e-07 W=5e-07 AD=1.325e-13 AS=1.325e-13 PD=5.3e-07 PS=5.3e-07
MM2@1341 N_VOUT_MM2@1341_d N_NODE2_MM2@1341_g N_VSS_MM2@1341_s N_VSS_MM0_b N_18
+ L=1.8e-07 W=5e-07 AD=1.325e-13 AS=1.325e-13 PD=5.3e-07 PS=5.3e-07
MM2@1340 N_VOUT_MM2@1340_d N_NODE2_MM2@1340_g N_VSS_MM2@1340_s N_VSS_MM0_b N_18
+ L=1.8e-07 W=5e-07 AD=1.325e-13 AS=1.325e-13 PD=5.3e-07 PS=5.3e-07
MM2@1339 N_VOUT_MM2@1339_d N_NODE2_MM2@1339_g N_VSS_MM2@1339_s N_VSS_MM0_b N_18
+ L=1.8e-07 W=5e-07 AD=1.325e-13 AS=1.325e-13 PD=5.3e-07 PS=5.3e-07
MM2@1338 N_VOUT_MM2@1338_d N_NODE2_MM2@1338_g N_VSS_MM2@1338_s N_VSS_MM0_b N_18
+ L=1.8e-07 W=5e-07 AD=1.325e-13 AS=1.325e-13 PD=5.3e-07 PS=5.3e-07
MM2@1337 N_VOUT_MM2@1337_d N_NODE2_MM2@1337_g N_VSS_MM2@1337_s N_VSS_MM0_b N_18
+ L=1.8e-07 W=5e-07 AD=1.325e-13 AS=1.325e-13 PD=5.3e-07 PS=5.3e-07
MM2@1336 N_VOUT_MM2@1336_d N_NODE2_MM2@1336_g N_VSS_MM2@1336_s N_VSS_MM0_b N_18
+ L=1.8e-07 W=5e-07 AD=1.325e-13 AS=1.325e-13 PD=5.3e-07 PS=5.3e-07
MM2@1335 N_VOUT_MM2@1335_d N_NODE2_MM2@1335_g N_VSS_MM2@1335_s N_VSS_MM0_b N_18
+ L=1.8e-07 W=5e-07 AD=1.325e-13 AS=1.325e-13 PD=5.3e-07 PS=5.3e-07
MM2@1334 N_VOUT_MM2@1334_d N_NODE2_MM2@1334_g N_VSS_MM2@1334_s N_VSS_MM0_b N_18
+ L=1.8e-07 W=5e-07 AD=1.325e-13 AS=1.325e-13 PD=5.3e-07 PS=5.3e-07
MM2@1333 N_VOUT_MM2@1333_d N_NODE2_MM2@1333_g N_VSS_MM2@1333_s N_VSS_MM0_b N_18
+ L=1.8e-07 W=5e-07 AD=1.325e-13 AS=1.325e-13 PD=5.3e-07 PS=5.3e-07
MM2@1332 N_VOUT_MM2@1332_d N_NODE2_MM2@1332_g N_VSS_MM2@1332_s N_VSS_MM0_b N_18
+ L=1.8e-07 W=5e-07 AD=1.325e-13 AS=1.325e-13 PD=5.3e-07 PS=5.3e-07
MM2@1331 N_VOUT_MM2@1331_d N_NODE2_MM2@1331_g N_VSS_MM2@1331_s N_VSS_MM0_b N_18
+ L=1.8e-07 W=5e-07 AD=1.325e-13 AS=1.325e-13 PD=5.3e-07 PS=5.3e-07
MM2@1330 N_VOUT_MM2@1330_d N_NODE2_MM2@1330_g N_VSS_MM2@1330_s N_VSS_MM0_b N_18
+ L=1.8e-07 W=5e-07 AD=1.325e-13 AS=1.325e-13 PD=5.3e-07 PS=5.3e-07
MM2@1329 N_VOUT_MM2@1329_d N_NODE2_MM2@1329_g N_VSS_MM2@1329_s N_VSS_MM0_b N_18
+ L=1.8e-07 W=5e-07 AD=1.325e-13 AS=1.325e-13 PD=5.3e-07 PS=5.3e-07
MM2@1328 N_VOUT_MM2@1328_d N_NODE2_MM2@1328_g N_VSS_MM2@1328_s N_VSS_MM0_b N_18
+ L=1.8e-07 W=5e-07 AD=1.325e-13 AS=1.325e-13 PD=5.3e-07 PS=5.3e-07
MM2@1327 N_VOUT_MM2@1327_d N_NODE2_MM2@1327_g N_VSS_MM2@1327_s N_VSS_MM0_b N_18
+ L=1.8e-07 W=5e-07 AD=1.325e-13 AS=1.325e-13 PD=5.3e-07 PS=5.3e-07
MM2@1326 N_VOUT_MM2@1326_d N_NODE2_MM2@1326_g N_VSS_MM2@1326_s N_VSS_MM0_b N_18
+ L=1.8e-07 W=5e-07 AD=1.325e-13 AS=1.325e-13 PD=5.3e-07 PS=5.3e-07
MM2@1325 N_VOUT_MM2@1325_d N_NODE2_MM2@1325_g N_VSS_MM2@1325_s N_VSS_MM0_b N_18
+ L=1.8e-07 W=5e-07 AD=1.325e-13 AS=1.325e-13 PD=5.3e-07 PS=5.3e-07
MM2@1324 N_VOUT_MM2@1324_d N_NODE2_MM2@1324_g N_VSS_MM2@1324_s N_VSS_MM0_b N_18
+ L=1.8e-07 W=5e-07 AD=1.325e-13 AS=1.325e-13 PD=5.3e-07 PS=5.3e-07
MM2@1323 N_VOUT_MM2@1323_d N_NODE2_MM2@1323_g N_VSS_MM2@1323_s N_VSS_MM0_b N_18
+ L=1.8e-07 W=5e-07 AD=1.325e-13 AS=1.325e-13 PD=5.3e-07 PS=5.3e-07
MM2@1322 N_VOUT_MM2@1322_d N_NODE2_MM2@1322_g N_VSS_MM2@1322_s N_VSS_MM0_b N_18
+ L=1.8e-07 W=5e-07 AD=1.325e-13 AS=1.325e-13 PD=5.3e-07 PS=5.3e-07
MM2@1321 N_VOUT_MM2@1321_d N_NODE2_MM2@1321_g N_VSS_MM2@1321_s N_VSS_MM0_b N_18
+ L=1.8e-07 W=5e-07 AD=1.325e-13 AS=1.325e-13 PD=5.3e-07 PS=5.3e-07
MM2@1320 N_VOUT_MM2@1320_d N_NODE2_MM2@1320_g N_VSS_MM2@1320_s N_VSS_MM0_b N_18
+ L=1.8e-07 W=5e-07 AD=1.325e-13 AS=1.325e-13 PD=5.3e-07 PS=5.3e-07
MM2@1319 N_VOUT_MM2@1319_d N_NODE2_MM2@1319_g N_VSS_MM2@1319_s N_VSS_MM0_b N_18
+ L=1.8e-07 W=5e-07 AD=1.325e-13 AS=1.325e-13 PD=5.3e-07 PS=5.3e-07
MM2@1318 N_VOUT_MM2@1318_d N_NODE2_MM2@1318_g N_VSS_MM2@1318_s N_VSS_MM0_b N_18
+ L=1.8e-07 W=5e-07 AD=1.325e-13 AS=1.325e-13 PD=5.3e-07 PS=5.3e-07
MM2@1317 N_VOUT_MM2@1317_d N_NODE2_MM2@1317_g N_VSS_MM2@1317_s N_VSS_MM0_b N_18
+ L=1.8e-07 W=5e-07 AD=1.325e-13 AS=1.325e-13 PD=5.3e-07 PS=5.3e-07
MM2@1316 N_VOUT_MM2@1316_d N_NODE2_MM2@1316_g N_VSS_MM2@1316_s N_VSS_MM0_b N_18
+ L=1.8e-07 W=5e-07 AD=1.325e-13 AS=1.325e-13 PD=5.3e-07 PS=5.3e-07
MM2@1315 N_VOUT_MM2@1315_d N_NODE2_MM2@1315_g N_VSS_MM2@1315_s N_VSS_MM0_b N_18
+ L=1.8e-07 W=5e-07 AD=1.325e-13 AS=1.325e-13 PD=5.3e-07 PS=5.3e-07
MM2@1314 N_VOUT_MM2@1314_d N_NODE2_MM2@1314_g N_VSS_MM2@1314_s N_VSS_MM0_b N_18
+ L=1.8e-07 W=5e-07 AD=1.325e-13 AS=1.325e-13 PD=5.3e-07 PS=5.3e-07
MM2@1313 N_VOUT_MM2@1313_d N_NODE2_MM2@1313_g N_VSS_MM2@1313_s N_VSS_MM0_b N_18
+ L=1.8e-07 W=5e-07 AD=1.325e-13 AS=1.325e-13 PD=5.3e-07 PS=5.3e-07
MM2@1312 N_VOUT_MM2@1312_d N_NODE2_MM2@1312_g N_VSS_MM2@1312_s N_VSS_MM0_b N_18
+ L=1.8e-07 W=5e-07 AD=1.325e-13 AS=1.325e-13 PD=5.3e-07 PS=5.3e-07
MM2@1311 N_VOUT_MM2@1311_d N_NODE2_MM2@1311_g N_VSS_MM2@1311_s N_VSS_MM0_b N_18
+ L=1.8e-07 W=5e-07 AD=1.325e-13 AS=1.325e-13 PD=5.3e-07 PS=5.3e-07
MM2@1310 N_VOUT_MM2@1310_d N_NODE2_MM2@1310_g N_VSS_MM2@1310_s N_VSS_MM0_b N_18
+ L=1.8e-07 W=5e-07 AD=1.325e-13 AS=1.325e-13 PD=5.3e-07 PS=5.3e-07
MM2@1309 N_VOUT_MM2@1309_d N_NODE2_MM2@1309_g N_VSS_MM2@1309_s N_VSS_MM0_b N_18
+ L=1.8e-07 W=5e-07 AD=1.325e-13 AS=1.325e-13 PD=5.3e-07 PS=5.3e-07
MM2@1308 N_VOUT_MM2@1308_d N_NODE2_MM2@1308_g N_VSS_MM2@1308_s N_VSS_MM0_b N_18
+ L=1.8e-07 W=5e-07 AD=1.325e-13 AS=1.325e-13 PD=5.3e-07 PS=5.3e-07
MM2@1307 N_VOUT_MM2@1307_d N_NODE2_MM2@1307_g N_VSS_MM2@1307_s N_VSS_MM0_b N_18
+ L=1.8e-07 W=5e-07 AD=1.325e-13 AS=1.325e-13 PD=5.3e-07 PS=5.3e-07
MM2@1306 N_VOUT_MM2@1306_d N_NODE2_MM2@1306_g N_VSS_MM2@1306_s N_VSS_MM0_b N_18
+ L=1.8e-07 W=5e-07 AD=1.325e-13 AS=1.325e-13 PD=5.3e-07 PS=5.3e-07
MM2@1305 N_VOUT_MM2@1305_d N_NODE2_MM2@1305_g N_VSS_MM2@1305_s N_VSS_MM0_b N_18
+ L=1.8e-07 W=5e-07 AD=1.325e-13 AS=1.325e-13 PD=5.3e-07 PS=5.3e-07
MM2@1304 N_VOUT_MM2@1304_d N_NODE2_MM2@1304_g N_VSS_MM2@1304_s N_VSS_MM0_b N_18
+ L=1.8e-07 W=5e-07 AD=1.325e-13 AS=1.325e-13 PD=5.3e-07 PS=5.3e-07
MM2@1303 N_VOUT_MM2@1303_d N_NODE2_MM2@1303_g N_VSS_MM2@1303_s N_VSS_MM0_b N_18
+ L=1.8e-07 W=5e-07 AD=1.325e-13 AS=1.325e-13 PD=5.3e-07 PS=5.3e-07
MM2@1302 N_VOUT_MM2@1302_d N_NODE2_MM2@1302_g N_VSS_MM2@1302_s N_VSS_MM0_b N_18
+ L=1.8e-07 W=5e-07 AD=1.325e-13 AS=1.325e-13 PD=5.3e-07 PS=5.3e-07
MM2@1301 N_VOUT_MM2@1301_d N_NODE2_MM2@1301_g N_VSS_MM2@1301_s N_VSS_MM0_b N_18
+ L=1.8e-07 W=5e-07 AD=1.325e-13 AS=1.325e-13 PD=5.3e-07 PS=5.3e-07
MM2@1300 N_VOUT_MM2@1300_d N_NODE2_MM2@1300_g N_VSS_MM2@1300_s N_VSS_MM0_b N_18
+ L=1.8e-07 W=5e-07 AD=1.325e-13 AS=1.325e-13 PD=5.3e-07 PS=5.3e-07
MM2@1299 N_VOUT_MM2@1299_d N_NODE2_MM2@1299_g N_VSS_MM2@1299_s N_VSS_MM0_b N_18
+ L=1.8e-07 W=5e-07 AD=1.325e-13 AS=1.325e-13 PD=5.3e-07 PS=5.3e-07
MM2@1298 N_VOUT_MM2@1298_d N_NODE2_MM2@1298_g N_VSS_MM2@1298_s N_VSS_MM0_b N_18
+ L=1.8e-07 W=5e-07 AD=1.325e-13 AS=1.325e-13 PD=5.3e-07 PS=5.3e-07
MM2@1297 N_VOUT_MM2@1297_d N_NODE2_MM2@1297_g N_VSS_MM2@1297_s N_VSS_MM0_b N_18
+ L=1.8e-07 W=5e-07 AD=1.325e-13 AS=1.325e-13 PD=5.3e-07 PS=5.3e-07
MM2@1296 N_VOUT_MM2@1296_d N_NODE2_MM2@1296_g N_VSS_MM2@1296_s N_VSS_MM0_b N_18
+ L=1.8e-07 W=5e-07 AD=1.325e-13 AS=1.325e-13 PD=5.3e-07 PS=5.3e-07
MM2@1295 N_VOUT_MM2@1295_d N_NODE2_MM2@1295_g N_VSS_MM2@1295_s N_VSS_MM0_b N_18
+ L=1.8e-07 W=5e-07 AD=1.325e-13 AS=1.325e-13 PD=5.3e-07 PS=5.3e-07
MM2@1294 N_VOUT_MM2@1294_d N_NODE2_MM2@1294_g N_VSS_MM2@1294_s N_VSS_MM0_b N_18
+ L=1.8e-07 W=5e-07 AD=1.325e-13 AS=1.325e-13 PD=5.3e-07 PS=5.3e-07
MM2@1293 N_VOUT_MM2@1293_d N_NODE2_MM2@1293_g N_VSS_MM2@1293_s N_VSS_MM0_b N_18
+ L=1.8e-07 W=5e-07 AD=1.325e-13 AS=1.325e-13 PD=5.3e-07 PS=5.3e-07
MM2@1292 N_VOUT_MM2@1292_d N_NODE2_MM2@1292_g N_VSS_MM2@1292_s N_VSS_MM0_b N_18
+ L=1.8e-07 W=5e-07 AD=1.325e-13 AS=1.325e-13 PD=5.3e-07 PS=5.3e-07
MM2@1291 N_VOUT_MM2@1291_d N_NODE2_MM2@1291_g N_VSS_MM2@1291_s N_VSS_MM0_b N_18
+ L=1.8e-07 W=5e-07 AD=1.325e-13 AS=1.325e-13 PD=5.3e-07 PS=5.3e-07
MM2@1290 N_VOUT_MM2@1290_d N_NODE2_MM2@1290_g N_VSS_MM2@1290_s N_VSS_MM0_b N_18
+ L=1.8e-07 W=5e-07 AD=1.325e-13 AS=1.325e-13 PD=5.3e-07 PS=5.3e-07
MM2@1289 N_VOUT_MM2@1289_d N_NODE2_MM2@1289_g N_VSS_MM2@1289_s N_VSS_MM0_b N_18
+ L=1.8e-07 W=5e-07 AD=1.325e-13 AS=1.325e-13 PD=5.3e-07 PS=5.3e-07
MM2@1288 N_VOUT_MM2@1288_d N_NODE2_MM2@1288_g N_VSS_MM2@1288_s N_VSS_MM0_b N_18
+ L=1.8e-07 W=5e-07 AD=1.325e-13 AS=1.325e-13 PD=5.3e-07 PS=5.3e-07
MM2@1287 N_VOUT_MM2@1287_d N_NODE2_MM2@1287_g N_VSS_MM2@1287_s N_VSS_MM0_b N_18
+ L=1.8e-07 W=5e-07 AD=1.325e-13 AS=1.325e-13 PD=5.3e-07 PS=5.3e-07
MM2@1286 N_VOUT_MM2@1286_d N_NODE2_MM2@1286_g N_VSS_MM2@1286_s N_VSS_MM0_b N_18
+ L=1.8e-07 W=5e-07 AD=1.325e-13 AS=1.325e-13 PD=5.3e-07 PS=5.3e-07
MM2@1285 N_VOUT_MM2@1285_d N_NODE2_MM2@1285_g N_VSS_MM2@1285_s N_VSS_MM0_b N_18
+ L=1.8e-07 W=5e-07 AD=1.325e-13 AS=1.325e-13 PD=5.3e-07 PS=5.3e-07
MM2@1284 N_VOUT_MM2@1284_d N_NODE2_MM2@1284_g N_VSS_MM2@1284_s N_VSS_MM0_b N_18
+ L=1.8e-07 W=5e-07 AD=1.325e-13 AS=1.325e-13 PD=5.3e-07 PS=5.3e-07
MM2@1283 N_VOUT_MM2@1283_d N_NODE2_MM2@1283_g N_VSS_MM2@1283_s N_VSS_MM0_b N_18
+ L=1.8e-07 W=5e-07 AD=1.325e-13 AS=1.325e-13 PD=5.3e-07 PS=5.3e-07
MM2@1282 N_VOUT_MM2@1282_d N_NODE2_MM2@1282_g N_VSS_MM2@1282_s N_VSS_MM0_b N_18
+ L=1.8e-07 W=5e-07 AD=1.325e-13 AS=1.325e-13 PD=5.3e-07 PS=5.3e-07
MM2@1281 N_VOUT_MM2@1281_d N_NODE2_MM2@1281_g N_VSS_MM2@1281_s N_VSS_MM0_b N_18
+ L=1.8e-07 W=5e-07 AD=1.325e-13 AS=1.325e-13 PD=5.3e-07 PS=5.3e-07
MM2@1280 N_VOUT_MM2@1280_d N_NODE2_MM2@1280_g N_VSS_MM2@1280_s N_VSS_MM0_b N_18
+ L=1.8e-07 W=5e-07 AD=1.325e-13 AS=1.325e-13 PD=5.3e-07 PS=5.3e-07
MM2@1279 N_VOUT_MM2@1279_d N_NODE2_MM2@1279_g N_VSS_MM2@1279_s N_VSS_MM0_b N_18
+ L=1.8e-07 W=5e-07 AD=1.325e-13 AS=1.325e-13 PD=5.3e-07 PS=5.3e-07
MM2@1278 N_VOUT_MM2@1278_d N_NODE2_MM2@1278_g N_VSS_MM2@1278_s N_VSS_MM0_b N_18
+ L=1.8e-07 W=5e-07 AD=1.325e-13 AS=1.325e-13 PD=5.3e-07 PS=5.3e-07
MM2@1277 N_VOUT_MM2@1277_d N_NODE2_MM2@1277_g N_VSS_MM2@1277_s N_VSS_MM0_b N_18
+ L=1.8e-07 W=5e-07 AD=1.325e-13 AS=1.325e-13 PD=5.3e-07 PS=5.3e-07
MM2@1276 N_VOUT_MM2@1276_d N_NODE2_MM2@1276_g N_VSS_MM2@1276_s N_VSS_MM0_b N_18
+ L=1.8e-07 W=5e-07 AD=1.325e-13 AS=1.325e-13 PD=5.3e-07 PS=5.3e-07
MM2@1275 N_VOUT_MM2@1275_d N_NODE2_MM2@1275_g N_VSS_MM2@1275_s N_VSS_MM0_b N_18
+ L=1.8e-07 W=5e-07 AD=1.325e-13 AS=1.325e-13 PD=5.3e-07 PS=5.3e-07
MM2@1274 N_VOUT_MM2@1274_d N_NODE2_MM2@1274_g N_VSS_MM2@1274_s N_VSS_MM0_b N_18
+ L=1.8e-07 W=5e-07 AD=1.325e-13 AS=1.325e-13 PD=5.3e-07 PS=5.3e-07
MM2@1273 N_VOUT_MM2@1273_d N_NODE2_MM2@1273_g N_VSS_MM2@1273_s N_VSS_MM0_b N_18
+ L=1.8e-07 W=5e-07 AD=1.325e-13 AS=1.325e-13 PD=5.3e-07 PS=5.3e-07
MM2@1272 N_VOUT_MM2@1272_d N_NODE2_MM2@1272_g N_VSS_MM2@1272_s N_VSS_MM0_b N_18
+ L=1.8e-07 W=5e-07 AD=1.325e-13 AS=1.325e-13 PD=5.3e-07 PS=5.3e-07
MM2@1271 N_VOUT_MM2@1271_d N_NODE2_MM2@1271_g N_VSS_MM2@1271_s N_VSS_MM0_b N_18
+ L=1.8e-07 W=5e-07 AD=1.325e-13 AS=1.325e-13 PD=5.3e-07 PS=5.3e-07
MM2@1270 N_VOUT_MM2@1270_d N_NODE2_MM2@1270_g N_VSS_MM2@1270_s N_VSS_MM0_b N_18
+ L=1.8e-07 W=5e-07 AD=1.325e-13 AS=1.325e-13 PD=5.3e-07 PS=5.3e-07
MM2@1269 N_VOUT_MM2@1269_d N_NODE2_MM2@1269_g N_VSS_MM2@1269_s N_VSS_MM0_b N_18
+ L=1.8e-07 W=5e-07 AD=1.325e-13 AS=1.325e-13 PD=5.3e-07 PS=5.3e-07
MM2@1268 N_VOUT_MM2@1268_d N_NODE2_MM2@1268_g N_VSS_MM2@1268_s N_VSS_MM0_b N_18
+ L=1.8e-07 W=5e-07 AD=1.325e-13 AS=1.325e-13 PD=5.3e-07 PS=5.3e-07
MM2@1267 N_VOUT_MM2@1267_d N_NODE2_MM2@1267_g N_VSS_MM2@1267_s N_VSS_MM0_b N_18
+ L=1.8e-07 W=5e-07 AD=1.325e-13 AS=1.325e-13 PD=5.3e-07 PS=5.3e-07
MM2@1266 N_VOUT_MM2@1266_d N_NODE2_MM2@1266_g N_VSS_MM2@1266_s N_VSS_MM0_b N_18
+ L=1.8e-07 W=5e-07 AD=1.325e-13 AS=1.325e-13 PD=5.3e-07 PS=5.3e-07
MM2@1265 N_VOUT_MM2@1265_d N_NODE2_MM2@1265_g N_VSS_MM2@1265_s N_VSS_MM0_b N_18
+ L=1.8e-07 W=5e-07 AD=1.325e-13 AS=1.325e-13 PD=5.3e-07 PS=5.3e-07
MM2@1264 N_VOUT_MM2@1264_d N_NODE2_MM2@1264_g N_VSS_MM2@1264_s N_VSS_MM0_b N_18
+ L=1.8e-07 W=5e-07 AD=1.325e-13 AS=1.325e-13 PD=5.3e-07 PS=5.3e-07
MM2@1263 N_VOUT_MM2@1263_d N_NODE2_MM2@1263_g N_VSS_MM2@1263_s N_VSS_MM0_b N_18
+ L=1.8e-07 W=5e-07 AD=1.325e-13 AS=1.325e-13 PD=5.3e-07 PS=5.3e-07
MM2@1262 N_VOUT_MM2@1262_d N_NODE2_MM2@1262_g N_VSS_MM2@1262_s N_VSS_MM0_b N_18
+ L=1.8e-07 W=5e-07 AD=1.325e-13 AS=1.325e-13 PD=5.3e-07 PS=5.3e-07
MM2@1261 N_VOUT_MM2@1261_d N_NODE2_MM2@1261_g N_VSS_MM2@1261_s N_VSS_MM0_b N_18
+ L=1.8e-07 W=5e-07 AD=1.325e-13 AS=1.325e-13 PD=5.3e-07 PS=5.3e-07
MM2@1260 N_VOUT_MM2@1260_d N_NODE2_MM2@1260_g N_VSS_MM2@1260_s N_VSS_MM0_b N_18
+ L=1.8e-07 W=5e-07 AD=1.325e-13 AS=1.325e-13 PD=5.3e-07 PS=5.3e-07
MM2@1259 N_VOUT_MM2@1259_d N_NODE2_MM2@1259_g N_VSS_MM2@1259_s N_VSS_MM0_b N_18
+ L=1.8e-07 W=5e-07 AD=1.325e-13 AS=1.325e-13 PD=5.3e-07 PS=5.3e-07
MM2@1258 N_VOUT_MM2@1258_d N_NODE2_MM2@1258_g N_VSS_MM2@1258_s N_VSS_MM0_b N_18
+ L=1.8e-07 W=5e-07 AD=1.325e-13 AS=1.325e-13 PD=5.3e-07 PS=5.3e-07
MM2@1257 N_VOUT_MM2@1257_d N_NODE2_MM2@1257_g N_VSS_MM2@1257_s N_VSS_MM0_b N_18
+ L=1.8e-07 W=5e-07 AD=1.325e-13 AS=1.325e-13 PD=5.3e-07 PS=5.3e-07
MM2@1256 N_VOUT_MM2@1256_d N_NODE2_MM2@1256_g N_VSS_MM2@1256_s N_VSS_MM0_b N_18
+ L=1.8e-07 W=5e-07 AD=1.325e-13 AS=1.325e-13 PD=5.3e-07 PS=5.3e-07
MM2@1255 N_VOUT_MM2@1255_d N_NODE2_MM2@1255_g N_VSS_MM2@1255_s N_VSS_MM0_b N_18
+ L=1.8e-07 W=5e-07 AD=1.325e-13 AS=1.325e-13 PD=5.3e-07 PS=5.3e-07
MM2@1254 N_VOUT_MM2@1254_d N_NODE2_MM2@1254_g N_VSS_MM2@1254_s N_VSS_MM0_b N_18
+ L=1.8e-07 W=5e-07 AD=1.325e-13 AS=1.325e-13 PD=5.3e-07 PS=5.3e-07
MM2@1253 N_VOUT_MM2@1253_d N_NODE2_MM2@1253_g N_VSS_MM2@1253_s N_VSS_MM0_b N_18
+ L=1.8e-07 W=5e-07 AD=1.325e-13 AS=1.325e-13 PD=5.3e-07 PS=5.3e-07
MM2@1252 N_VOUT_MM2@1252_d N_NODE2_MM2@1252_g N_VSS_MM2@1252_s N_VSS_MM0_b N_18
+ L=1.8e-07 W=5e-07 AD=1.325e-13 AS=1.325e-13 PD=5.3e-07 PS=5.3e-07
MM2@1251 N_VOUT_MM2@1251_d N_NODE2_MM2@1251_g N_VSS_MM2@1251_s N_VSS_MM0_b N_18
+ L=1.8e-07 W=5e-07 AD=1.325e-13 AS=1.325e-13 PD=5.3e-07 PS=5.3e-07
MM2@1250 N_VOUT_MM2@1250_d N_NODE2_MM2@1250_g N_VSS_MM2@1250_s N_VSS_MM0_b N_18
+ L=1.8e-07 W=5e-07 AD=1.325e-13 AS=1.325e-13 PD=5.3e-07 PS=5.3e-07
MM2@1249 N_VOUT_MM2@1249_d N_NODE2_MM2@1249_g N_VSS_MM2@1249_s N_VSS_MM0_b N_18
+ L=1.8e-07 W=5e-07 AD=1.325e-13 AS=1.325e-13 PD=5.3e-07 PS=5.3e-07
MM2@1248 N_VOUT_MM2@1248_d N_NODE2_MM2@1248_g N_VSS_MM2@1248_s N_VSS_MM0_b N_18
+ L=1.8e-07 W=5e-07 AD=1.325e-13 AS=1.325e-13 PD=5.3e-07 PS=5.3e-07
MM2@1247 N_VOUT_MM2@1247_d N_NODE2_MM2@1247_g N_VSS_MM2@1247_s N_VSS_MM0_b N_18
+ L=1.8e-07 W=5e-07 AD=1.325e-13 AS=1.325e-13 PD=5.3e-07 PS=5.3e-07
MM2@1246 N_VOUT_MM2@1246_d N_NODE2_MM2@1246_g N_VSS_MM2@1246_s N_VSS_MM0_b N_18
+ L=1.8e-07 W=5e-07 AD=1.325e-13 AS=1.325e-13 PD=5.3e-07 PS=5.3e-07
MM2@1245 N_VOUT_MM2@1245_d N_NODE2_MM2@1245_g N_VSS_MM2@1245_s N_VSS_MM0_b N_18
+ L=1.8e-07 W=5e-07 AD=1.325e-13 AS=1.325e-13 PD=5.3e-07 PS=5.3e-07
MM2@1244 N_VOUT_MM2@1244_d N_NODE2_MM2@1244_g N_VSS_MM2@1244_s N_VSS_MM0_b N_18
+ L=1.8e-07 W=5e-07 AD=1.325e-13 AS=1.325e-13 PD=5.3e-07 PS=5.3e-07
MM2@1243 N_VOUT_MM2@1243_d N_NODE2_MM2@1243_g N_VSS_MM2@1243_s N_VSS_MM0_b N_18
+ L=1.8e-07 W=5e-07 AD=1.325e-13 AS=1.325e-13 PD=5.3e-07 PS=5.3e-07
MM2@1242 N_VOUT_MM2@1242_d N_NODE2_MM2@1242_g N_VSS_MM2@1242_s N_VSS_MM0_b N_18
+ L=1.8e-07 W=5e-07 AD=1.325e-13 AS=1.325e-13 PD=5.3e-07 PS=5.3e-07
MM2@1241 N_VOUT_MM2@1241_d N_NODE2_MM2@1241_g N_VSS_MM2@1241_s N_VSS_MM0_b N_18
+ L=1.8e-07 W=5e-07 AD=1.325e-13 AS=1.325e-13 PD=5.3e-07 PS=5.3e-07
MM2@1240 N_VOUT_MM2@1240_d N_NODE2_MM2@1240_g N_VSS_MM2@1240_s N_VSS_MM0_b N_18
+ L=1.8e-07 W=5e-07 AD=1.325e-13 AS=1.325e-13 PD=5.3e-07 PS=5.3e-07
MM2@1239 N_VOUT_MM2@1239_d N_NODE2_MM2@1239_g N_VSS_MM2@1239_s N_VSS_MM0_b N_18
+ L=1.8e-07 W=5e-07 AD=1.325e-13 AS=1.325e-13 PD=5.3e-07 PS=5.3e-07
MM2@1238 N_VOUT_MM2@1238_d N_NODE2_MM2@1238_g N_VSS_MM2@1238_s N_VSS_MM0_b N_18
+ L=1.8e-07 W=5e-07 AD=1.325e-13 AS=1.325e-13 PD=5.3e-07 PS=5.3e-07
MM2@1237 N_VOUT_MM2@1237_d N_NODE2_MM2@1237_g N_VSS_MM2@1237_s N_VSS_MM0_b N_18
+ L=1.8e-07 W=5e-07 AD=1.325e-13 AS=1.325e-13 PD=5.3e-07 PS=5.3e-07
MM2@1236 N_VOUT_MM2@1236_d N_NODE2_MM2@1236_g N_VSS_MM2@1236_s N_VSS_MM0_b N_18
+ L=1.8e-07 W=5e-07 AD=1.325e-13 AS=1.325e-13 PD=5.3e-07 PS=5.3e-07
MM2@1235 N_VOUT_MM2@1235_d N_NODE2_MM2@1235_g N_VSS_MM2@1235_s N_VSS_MM0_b N_18
+ L=1.8e-07 W=5e-07 AD=1.325e-13 AS=1.325e-13 PD=5.3e-07 PS=5.3e-07
MM2@1234 N_VOUT_MM2@1234_d N_NODE2_MM2@1234_g N_VSS_MM2@1234_s N_VSS_MM0_b N_18
+ L=1.8e-07 W=5e-07 AD=1.325e-13 AS=1.325e-13 PD=5.3e-07 PS=5.3e-07
MM2@1233 N_VOUT_MM2@1233_d N_NODE2_MM2@1233_g N_VSS_MM2@1233_s N_VSS_MM0_b N_18
+ L=1.8e-07 W=5e-07 AD=1.325e-13 AS=1.325e-13 PD=5.3e-07 PS=5.3e-07
MM2@1232 N_VOUT_MM2@1232_d N_NODE2_MM2@1232_g N_VSS_MM2@1232_s N_VSS_MM0_b N_18
+ L=1.8e-07 W=5e-07 AD=1.325e-13 AS=1.325e-13 PD=5.3e-07 PS=5.3e-07
MM2@1231 N_VOUT_MM2@1231_d N_NODE2_MM2@1231_g N_VSS_MM2@1231_s N_VSS_MM0_b N_18
+ L=1.8e-07 W=5e-07 AD=1.325e-13 AS=1.325e-13 PD=5.3e-07 PS=5.3e-07
MM2@1230 N_VOUT_MM2@1230_d N_NODE2_MM2@1230_g N_VSS_MM2@1230_s N_VSS_MM0_b N_18
+ L=1.8e-07 W=5e-07 AD=1.325e-13 AS=1.325e-13 PD=5.3e-07 PS=5.3e-07
MM2@1229 N_VOUT_MM2@1229_d N_NODE2_MM2@1229_g N_VSS_MM2@1229_s N_VSS_MM0_b N_18
+ L=1.8e-07 W=5e-07 AD=1.325e-13 AS=1.325e-13 PD=5.3e-07 PS=5.3e-07
MM2@1228 N_VOUT_MM2@1228_d N_NODE2_MM2@1228_g N_VSS_MM2@1228_s N_VSS_MM0_b N_18
+ L=1.8e-07 W=5e-07 AD=1.325e-13 AS=1.325e-13 PD=5.3e-07 PS=5.3e-07
MM2@1227 N_VOUT_MM2@1227_d N_NODE2_MM2@1227_g N_VSS_MM2@1227_s N_VSS_MM0_b N_18
+ L=1.8e-07 W=5e-07 AD=1.325e-13 AS=1.325e-13 PD=5.3e-07 PS=5.3e-07
MM2@1226 N_VOUT_MM2@1226_d N_NODE2_MM2@1226_g N_VSS_MM2@1226_s N_VSS_MM0_b N_18
+ L=1.8e-07 W=5e-07 AD=1.325e-13 AS=1.325e-13 PD=5.3e-07 PS=5.3e-07
MM2@1225 N_VOUT_MM2@1225_d N_NODE2_MM2@1225_g N_VSS_MM2@1225_s N_VSS_MM0_b N_18
+ L=1.8e-07 W=5e-07 AD=1.325e-13 AS=1.325e-13 PD=5.3e-07 PS=5.3e-07
MM2@1224 N_VOUT_MM2@1224_d N_NODE2_MM2@1224_g N_VSS_MM2@1224_s N_VSS_MM0_b N_18
+ L=1.8e-07 W=5e-07 AD=1.325e-13 AS=1.325e-13 PD=5.3e-07 PS=5.3e-07
MM2@1223 N_VOUT_MM2@1223_d N_NODE2_MM2@1223_g N_VSS_MM2@1223_s N_VSS_MM0_b N_18
+ L=1.8e-07 W=5e-07 AD=1.325e-13 AS=1.325e-13 PD=5.3e-07 PS=5.3e-07
MM2@1222 N_VOUT_MM2@1222_d N_NODE2_MM2@1222_g N_VSS_MM2@1222_s N_VSS_MM0_b N_18
+ L=1.8e-07 W=5e-07 AD=1.325e-13 AS=1.325e-13 PD=5.3e-07 PS=5.3e-07
MM2@1221 N_VOUT_MM2@1221_d N_NODE2_MM2@1221_g N_VSS_MM2@1221_s N_VSS_MM0_b N_18
+ L=1.8e-07 W=5e-07 AD=1.325e-13 AS=1.325e-13 PD=5.3e-07 PS=5.3e-07
MM2@1220 N_VOUT_MM2@1220_d N_NODE2_MM2@1220_g N_VSS_MM2@1220_s N_VSS_MM0_b N_18
+ L=1.8e-07 W=5e-07 AD=1.325e-13 AS=1.325e-13 PD=5.3e-07 PS=5.3e-07
MM2@1219 N_VOUT_MM2@1219_d N_NODE2_MM2@1219_g N_VSS_MM2@1219_s N_VSS_MM0_b N_18
+ L=1.8e-07 W=5e-07 AD=1.325e-13 AS=1.325e-13 PD=5.3e-07 PS=5.3e-07
MM2@1218 N_VOUT_MM2@1218_d N_NODE2_MM2@1218_g N_VSS_MM2@1218_s N_VSS_MM0_b N_18
+ L=1.8e-07 W=5e-07 AD=1.325e-13 AS=1.325e-13 PD=5.3e-07 PS=5.3e-07
MM2@1217 N_VOUT_MM2@1217_d N_NODE2_MM2@1217_g N_VSS_MM2@1217_s N_VSS_MM0_b N_18
+ L=1.8e-07 W=5e-07 AD=1.325e-13 AS=1.325e-13 PD=5.3e-07 PS=5.3e-07
MM2@1216 N_VOUT_MM2@1216_d N_NODE2_MM2@1216_g N_VSS_MM2@1216_s N_VSS_MM0_b N_18
+ L=1.8e-07 W=5e-07 AD=1.325e-13 AS=1.325e-13 PD=5.3e-07 PS=5.3e-07
MM2@1215 N_VOUT_MM2@1215_d N_NODE2_MM2@1215_g N_VSS_MM2@1215_s N_VSS_MM0_b N_18
+ L=1.8e-07 W=5e-07 AD=1.325e-13 AS=1.325e-13 PD=5.3e-07 PS=5.3e-07
MM2@1214 N_VOUT_MM2@1214_d N_NODE2_MM2@1214_g N_VSS_MM2@1214_s N_VSS_MM0_b N_18
+ L=1.8e-07 W=5e-07 AD=1.325e-13 AS=1.325e-13 PD=5.3e-07 PS=5.3e-07
MM2@1213 N_VOUT_MM2@1213_d N_NODE2_MM2@1213_g N_VSS_MM2@1213_s N_VSS_MM0_b N_18
+ L=1.8e-07 W=5e-07 AD=1.325e-13 AS=1.325e-13 PD=5.3e-07 PS=5.3e-07
MM2@1212 N_VOUT_MM2@1212_d N_NODE2_MM2@1212_g N_VSS_MM2@1212_s N_VSS_MM0_b N_18
+ L=1.8e-07 W=5e-07 AD=1.325e-13 AS=1.325e-13 PD=5.3e-07 PS=5.3e-07
MM2@1211 N_VOUT_MM2@1211_d N_NODE2_MM2@1211_g N_VSS_MM2@1211_s N_VSS_MM0_b N_18
+ L=1.8e-07 W=5e-07 AD=1.325e-13 AS=1.325e-13 PD=5.3e-07 PS=5.3e-07